 ****** HSPICE -- K-2015.06-3 win64 (Aug  6 2015) ******                        
  Copyright (c) 1986 - 2023 by Synopsys, Inc. All Rights Reserved.              
  This software and the associated documentation are proprietary
  to Synopsys, Inc. This software may only be used in accordance
  with the terms and conditions of a written license agreement with
  Synopsys, Inc. All other use, reproduction, or distribution of
  this software is strictly prohibited.
  Input File: OPA_OP.sp                                                         
  Command line options: C:\synopsys\Hspice_K-2015.06-3\WIN64\hspice.exe -i OPA_OP.sp -o D:\Desktop\ADC\SHA\OPAMP\OPA_OP.lis
  lic:  
  lic: FLEXlm: v11.2.1 
  lic: USER:   DELL                 HOSTNAME: SZX-l2h4 
  lic: HOSTID: "2c8db1dbb46e"       PID:      21376 
  lic: Using FLEXlm license file: 
  lic: 27010@SZX-l2h4 
  lic: Checkout 1 hspice 
  lic: License/Maintenance for hspice will expire on 30-dec-2030/2029.2029 
  lic: 1(in_use)/99(total) FLOATING license(s) on SERVER 27010@SZX-l2h4 
  lic:   
 Init: read install configuration file: C:\synopsys\Hspice_K-2015.06-3\meta.cfg

 **warning**  runlvl smaller than 5, reset to 5 when accurate turned on

 **warning**  runlvl smaller than 5, reset to 5 when accurate turned on
1****** HSPICE -- K-2015.06-3 win64 (Aug  6 2015) ******                        
 ******  
 .title opa_open_loop

 ****** circuit name directory
 circuit number to circuit name directory
   number circuitname                     definition         multiplier
        0 main circuit
        1 x1.                             opamp              1.00 
1****** HSPICE -- K-2015.06-3 win64 (Aug  6 2015) ******                        
 ******  
 .title opa_open_loop

 ****** mos   model parameters tnom=  25.000 temp=  25.000 ******
 ***************************************************************************
 *** common model parameters  model name:   1:n08      model type:nmos   ***
 ***************************************************************************
     names  values   units     names  values   units     names  values   units
     -----  ------   -----     -----  ------   -----     -----  ------   -----

   1*** geometry parameters ***
       ld=  16.00n meters      lmlt=   1.00                wd=   0.    meters 
     wmlt=   1.00                xl=   0.    meters        xw=   0.    meters 
     lref=   0.    meters      wref=   0.    meters      lref=   0.    meters 
     wref=   0.    meters     xlref=   0.    meters     xwref=   0.    meters 
     lmin=   0.    meters      wmin=   0.    meters      lmax=   0.    meters 
     wmax=   0.    meters 

   2*** threshold voltage parameters ***
      vto= 700.00m volts        nss=   0.    1/cm**2      tpg=   1.00         
      phi= 700.00m volts      gamma= 400.00m v**0.5      bulk=  gnd           
    ngate=   0.    cm**3       nsub= 2.9e+16 1/cm**3   delvto=   0.    volts  

   3*** gate overlap capacitance parameters ***
     cgbo= 700.00p f/meter     cgdo= 220.00p f/meter     cgso= 220.00p f/meter
     meto=   0.    meters 

   4*** gate capacitance parameters ***
    capop=   2.00               cf1=   0.    volts        cf2= 100.00m volts  
      cf3=   1.00  volts        cf4=  50.00               cf5= 666.67m        
      cf6= 500.00               xqc= 500.00m              tox=  14.00n meters 
      cox=   2.47m f/m**2 

   5*** diffusion parasitic parameters ***
      acm=   0.                  is=  10.00f amps          js=   0.    a/m**2 
      jsw=   0.    amp/m        nds=   1.00               cbd=   0.    farad  
      cbs=   0.    farad         cj= 770.00u f/m**2      cjsw= 380.00p f/m    
   cjgate= 380.00p f/m           mj= 500.00m             mjsw= 380.00m        
       pb= 800.00m volts        php= 800.00m volts         tt=   0.    secs   
     hdif=   0.    meters      ldif=   0.    meters        rd=   0.    ohms   
       rs=   0.    ohms         rsh=   0.    ohms/sq       fc=   0.           
    alpha=   0.                 vcr=   0.    volts      iirat=   0.           
      rdc=   0.    ohms         rsc=   0.    ohms           n=   1.00         
     vnds=  -1.00  volts  

   6*** temperature effect parameters ***
     tlev=   0.               tlevc=   0.                  eg=   1.11  ev     
     gap1= 702.00u ev/deg      gap2=   1.11k deg          xti=   0.           
      bex=  -1.50               tcv=   0.    v/deg k      trd=   0.    /deg   
      trs=   0.    /deg         cta=   0.    /deg         ctp=   0.    /deg   

   7*** noise parameters ***
       kf=   0.                  af=   1.00              nlev=   2.00         
   gdsnoi=   1.00         

   ***  level  1  model parameters  ***

   lambda=  40.00m /v            kp= 110.00u a/v**2 
 ***************************************************************************
 *** common model parameters  model name:   1:p08      model type:pmos   ***
 ***************************************************************************
     names  values   units     names  values   units     names  values   units
     -----  ------   -----     -----  ------   -----     -----  ------   -----

   1*** geometry parameters ***
       ld=  14.00n meters      lmlt=   1.00                wd=   0.    meters 
     wmlt=   1.00                xl=   0.    meters        xw=   0.    meters 
     lref=   0.    meters      wref=   0.    meters      lref=   0.    meters 
     wref=   0.    meters     xlref=   0.    meters     xwref=   0.    meters 
     lmin=   0.    meters      wmin=   0.    meters      lmax=   0.    meters 
     wmax=   0.    meters 

   2*** threshold voltage parameters ***
      vto=-700.00m volts        nss=   0.    1/cm**2      tpg=   1.00         
      phi= 800.00m volts      gamma= 570.00m v**0.5      bulk=  gnd           
    ngate=   0.    cm**3       nsub= 5.9e+16 1/cm**3   delvto=   0.    volts  

   3*** gate overlap capacitance parameters ***
     cgbo= 700.00p f/meter     cgdo= 220.00p f/meter     cgso= 220.00p f/meter
     meto=   0.    meters 

   4*** gate capacitance parameters ***
    capop=   2.00               cf1=   0.    volts        cf2= 100.00m volts  
      cf3=   1.00  volts        cf4=  50.00               cf5= 666.67m        
      cf6= 500.00               xqc= 500.00m              tox=  14.00n meters 
      cox=   2.47m f/m**2 

   5*** diffusion parasitic parameters ***
      acm=   0.                  is=  10.00f amps          js=   0.    a/m**2 
      jsw=   0.    amp/m        nds=   1.00               cbd=   0.    farad  
      cbs=   0.    farad         cj= 560.00u f/m**2      cjsw= 350.00p f/m    
   cjgate= 350.00p f/m           mj= 500.00m             mjsw= 350.00m        
       pb= 800.00m volts        php= 800.00m volts         tt=   0.    secs   
     hdif=   0.    meters      ldif=   0.    meters        rd=   0.    ohms   
       rs=   0.    ohms         rsh=   0.    ohms/sq       fc=   0.           
    alpha=   0.                 vcr=   0.    volts      iirat=   0.           
      rdc=   0.    ohms         rsc=   0.    ohms           n=   1.00         
     vnds=  -1.00  volts  

   6*** temperature effect parameters ***
     tlev=   0.               tlevc=   0.                  eg=   1.11  ev     
     gap1= 702.00u ev/deg      gap2=   1.11k deg          xti=   0.           
      bex=  -1.50               tcv=   0.    v/deg k      trd=   0.    /deg   
      trs=   0.    /deg         cta=   0.    /deg         ctp=   0.    /deg   

   7*** noise parameters ***
       kf=   0.                  af=   1.00              nlev=   2.00         
   gdsnoi=   1.00         

   ***  level  1  model parameters  ***

   lambda=  50.00m /v            kp=  50.00u a/v**2 
  
      
 **info** set option symb=1 internally to help for convergence.
 *****************************************************************
 ******  option summary
 ******
 runlvl  = 5         bypass  = 2         
  Opening plot unit= 79
 file=D:\Desktop\ADC\SHA\OPAMP\OPA_OP.pa0





 ****     small-signal transfer characteristics

        vvip       input resistance at vvip      output resistance at v(6)        v(6)/vvip     

     -50.0000m           1.000e+20                       1.2763k                    1.5104 
     -49.9000m           1.000e+20                       1.2775k                    1.5121 
     -49.8000m           1.000e+20                       1.2787k                    1.5138 
     -49.7000m           1.000e+20                       1.2800k                    1.5155 
     -49.6000m           1.000e+20                       1.2812k                    1.5171 
     -49.5000m           1.000e+20                       1.2825k                    1.5188 
     -49.4000m           1.000e+20                       1.2837k                    1.5205 
     -49.3000m           1.000e+20                       1.2850k                    1.5222 
     -49.2000m           1.000e+20                       1.2862k                    1.5239 
     -49.1000m           1.000e+20                       1.2875k                    1.5256 
     -49.0000m           1.000e+20                       1.2888k                    1.5273 
     -48.9000m           1.000e+20                       1.2900k                    1.5290 
     -48.8000m           1.000e+20                       1.2913k                    1.5308 
     -48.7000m           1.000e+20                       1.2926k                    1.5325 
     -48.6000m           1.000e+20                       1.2939k                    1.5342 
     -48.5000m           1.000e+20                       1.2952k                    1.5360 
     -48.4000m           1.000e+20                       1.2965k                    1.5377 
     -48.3000m           1.000e+20                       1.2978k                    1.5395 
     -48.2000m           1.000e+20                       1.2991k                    1.5412 
     -48.1000m           1.000e+20                       1.3004k                    1.5430 
     -48.0000m           1.000e+20                       1.3017k                    1.5448 
     -47.9000m           1.000e+20                       1.3030k                    1.5465 
     -47.8000m           1.000e+20                       1.3043k                    1.5483 
     -47.7000m           1.000e+20                       1.3057k                    1.5501 
     -47.6000m           1.000e+20                       1.3070k                    1.5519 
     -47.5000m           1.000e+20                       1.3083k                    1.5537 
     -47.4000m           1.000e+20                       1.3097k                    1.5555 
     -47.3000m           1.000e+20                       1.3110k                    1.5573 
     -47.2000m           1.000e+20                       1.3124k                    1.5591 
     -47.1000m           1.000e+20                       1.3137k                    1.5609 
     -47.0000m           1.000e+20                       1.3151k                    1.5628 
     -46.9000m           1.000e+20                       1.3164k                    1.5646 
     -46.8000m           1.000e+20                       1.3178k                    1.5664 
     -46.7000m           1.000e+20                       1.3192k                    1.5683 
     -46.6000m           1.000e+20                       1.3206k                    1.5701 
     -46.5000m           1.000e+20                       1.3219k                    1.5720 
     -46.4000m           1.000e+20                       1.3233k                    1.5738 
     -46.3000m           1.000e+20                       1.3247k                    1.5757 
     -46.2000m           1.000e+20                       1.3261k                    1.5776 
     -46.1000m           1.000e+20                       1.3275k                    1.5795 
     -46.0000m           1.000e+20                       1.3289k                    1.5814 
     -45.9000m           1.000e+20                       1.3303k                    1.5833 
     -45.8000m           1.000e+20                       1.3317k                    1.5852 
     -45.7000m           1.000e+20                       1.3332k                    1.5871 
     -45.6000m           1.000e+20                       1.3346k                    1.5890 
     -45.5000m           1.000e+20                       1.3360k                    1.5909 
     -45.4000m           1.000e+20                       1.3375k                    1.5928 
     -45.3000m           1.000e+20                       1.3389k                    1.5948 
     -45.2000m           1.000e+20                       1.3404k                    1.5967 
     -45.1000m           1.000e+20                       1.3418k                    1.5987 
     -45.0000m           1.000e+20                       1.3433k                    1.6006 
     -44.9000m           1.000e+20                       1.3447k                    1.6026 
     -44.8000m           1.000e+20                       1.3462k                    1.6045 
     -44.7000m           1.000e+20                       1.3477k                    1.6065 
     -44.6000m           1.000e+20                       1.3492k                    1.6085 
     -44.5000m           1.000e+20                       1.3506k                    1.6105 
     -44.4000m           1.000e+20                       1.3521k                    1.6125 
     -44.3000m           1.000e+20                       1.3536k                    1.6145 
     -44.2000m           1.000e+20                       1.3551k                    1.6165 
     -44.1000m           1.000e+20                       1.3566k                    1.6185 
     -44.0000m           1.000e+20                       1.3581k                    1.6205 
     -43.9000m           1.000e+20                       1.3597k                    1.6226 
     -43.8000m           1.000e+20                       1.3612k                    1.6246 
     -43.7000m           1.000e+20                       1.3627k                    1.6267 
     -43.6000m           1.000e+20                       1.3643k                    1.6287 
     -43.5000m           1.000e+20                       1.3658k                    1.6308 
     -43.4000m           1.000e+20                       1.3673k                    1.6328 
     -43.3000m           1.000e+20                       1.3689k                    1.6349 
     -43.2000m           1.000e+20                       1.3705k                    1.6370 
     -43.1000m           1.000e+20                       1.3720k                    1.6391 
     -43.0000m           1.000e+20                       1.3736k                    1.6412 
     -42.9000m           1.000e+20                       1.3752k                    1.6433 
     -42.8000m           1.000e+20                       1.3768k                    1.6454 
     -42.7000m           1.000e+20                       1.3783k                    1.6475 
     -42.6000m           1.000e+20                       1.3799k                    1.6497 
     -42.5000m           1.000e+20                       1.3815k                    1.6518 
     -42.4000m           1.000e+20                       1.3832k                    1.6540 
     -42.3000m           1.000e+20                       1.3848k                    1.6561 
     -42.2000m           1.000e+20                       1.3864k                    1.6583 
     -42.1000m           1.000e+20                       1.3880k                    1.6605 
     -42.0000m           1.000e+20                       1.3897k                    1.6626 
     -41.9000m           1.000e+20                       1.3913k                    1.6648 
     -41.8000m           1.000e+20                       1.3929k                    1.6670 
     -41.7000m           1.000e+20                       1.3946k                    1.6692 
     -41.6000m           1.000e+20                       1.3963k                    1.6714 
     -41.5000m           1.000e+20                       1.3979k                    1.6737 
     -41.4000m           1.000e+20                       1.3996k                    1.6759 
     -41.3000m           1.000e+20                       1.4013k                    1.6781 
     -41.2000m           1.000e+20                       1.4030k                    1.6804 
     -41.1000m           1.000e+20                       1.4047k                    1.6826 
     -41.0000m           1.000e+20                       1.4064k                    1.6849 
     -40.9000m           1.000e+20                       1.4081k                    1.6872 
     -40.8000m           1.000e+20                       1.4098k                    1.6895 
     -40.7000m           1.000e+20                       1.4115k                    1.6918 
     -40.6000m           1.000e+20                       1.4132k                    1.6941 
     -40.5000m           1.000e+20                       1.4150k                    1.6964 
     -40.4000m           1.000e+20                       1.4167k                    1.6987 
     -40.3000m           1.000e+20                       1.4184k                    1.7010 
     -40.2000m           1.000e+20                       1.4202k                    1.7033 
     -40.1000m           1.000e+20                       1.4220k                    1.7057 
     -40.0000m           1.000e+20                       1.4237k                    1.7081 
     -39.9000m           1.000e+20                       1.4255k                    1.7104 
     -39.8000m           1.000e+20                       1.4273k                    1.7128 
     -39.7000m           1.000e+20                       1.4291k                    1.7152 
     -39.6000m           1.000e+20                       1.4309k                    1.7176 
     -39.5000m           1.000e+20                       1.4327k                    1.7200 
     -39.4000m           1.000e+20                       1.4345k                    1.7224 
     -39.3000m           1.000e+20                       1.4363k                    1.7248 
     -39.2000m           1.000e+20                       1.4382k                    1.7273 
     -39.1000m           1.000e+20                       1.4400k                    1.7297 
     -39.0000m           1.000e+20                       1.4419k                    1.7322 
     -38.9000m           1.000e+20                       1.4437k                    1.7346 
     -38.8000m           1.000e+20                       1.4456k                    1.7371 
     -38.7000m           1.000e+20                       1.4475k                    1.7396 
     -38.6000m           1.000e+20                       1.4493k                    1.7421 
     -38.5000m           1.000e+20                       1.4512k                    1.7446 
     -38.4000m           1.000e+20                       1.4531k                    1.7471 
     -38.3000m           1.000e+20                       1.4550k                    1.7496 
     -38.2000m           1.000e+20                       1.4569k                    1.7522 
     -38.1000m           1.000e+20                       1.4589k                    1.7547 
     -38.0000m           1.000e+20                       1.4608k                    1.7573 
     -37.9000m           1.000e+20                       1.4627k                    1.7599 
     -37.8000m           1.000e+20                       1.4647k                    1.7624 
     -37.7000m           1.000e+20                       1.4666k                    1.7650 
     -37.6000m           1.000e+20                       1.4686k                    1.7676 
     -37.5000m           1.000e+20                       1.4706k                    1.7703 
     -37.4000m           1.000e+20                       1.4725k                    1.7729 
     -37.3000m           1.000e+20                       1.4745k                    1.7755 
     -37.2000m           1.000e+20                       1.4765k                    1.7782 
     -37.1000m           1.000e+20                       1.4785k                    1.7808 
     -37.0000m           1.000e+20                       1.4806k                    1.7835 
     -36.9000m           1.000e+20                       1.4826k                    1.7862 
     -36.8000m           1.000e+20                       1.4846k                    1.7889 
     -36.7000m           1.000e+20                       1.4867k                    1.7916 
     -36.6000m           1.000e+20                       1.4887k                    1.7943 
     -36.5000m           1.000e+20                       1.4908k                    1.7971 
     -36.4000m           1.000e+20                       1.4929k                    1.7998 
     -36.3000m           1.000e+20                       1.4949k                    1.8026 
     -36.2000m           1.000e+20                       1.4970k                    1.8053 
     -36.1000m           1.000e+20                       1.4991k                    1.8081 
     -36.0000m           1.000e+20                       1.5013k                    1.8109 
     -35.9000m           1.000e+20                       1.5034k                    1.8137 
     -35.8000m           1.000e+20                       1.5055k                    1.8166 
     -35.7000m           1.000e+20                       1.5076k                    1.8194 
     -35.6000m           1.000e+20                       1.5098k                    1.8222 
     -35.5000m           1.000e+20                       1.5120k                    1.8251 
     -35.4000m           1.000e+20                       1.5141k                    1.8280 
     -35.3000m           1.000e+20                       1.5163k                    1.8309 
     -35.2000m           1.000e+20                       1.5185k                    1.8338 
     -35.1000m           1.000e+20                       1.5207k                    1.8367 
     -35.0000m           1.000e+20                       1.5229k                    1.8396 
     -34.9000m           1.000e+20                       1.5252k                    1.8426 
     -34.8000m           1.000e+20                       1.5274k                    1.8455 
     -34.7000m           1.000e+20                       1.5296k                    1.8485 
     -34.6000m           1.000e+20                       1.5319k                    1.8515 
     -34.5000m           1.000e+20                       1.5342k                    1.8545 
     -34.4000m           1.000e+20                       1.5365k                    1.8575 
     -34.3000m           1.000e+20                       1.5387k                    1.8605 
     -34.2000m           1.000e+20                       1.5411k                    1.8636 
     -34.1000m           1.000e+20                       1.5434k                    1.8666 
     -34.0000m           1.000e+20                       1.5457k                    1.8697 
     -33.9000m           1.000e+20                       1.5480k                    1.8728 
     -33.8000m           1.000e+20                       1.5504k                    1.8759 
     -33.7000m           1.000e+20                       1.5527k                    1.8790 
     -33.6000m           1.000e+20                       1.5551k                    1.8821 
     -33.5000m           1.000e+20                       1.5575k                    1.8853 
     -33.4000m           1.000e+20                       1.5599k                    1.8885 
     -33.3000m           1.000e+20                       1.5623k                    1.8917 
     -33.2000m           1.000e+20                       1.5647k                    1.8948 
     -33.1000m           1.000e+20                       1.5672k                    1.8981 
     -33.0000m           1.000e+20                       1.5696k                    1.9013 
     -32.9000m           1.000e+20                       1.5721k                    1.9045 
     -32.8000m           1.000e+20                       1.5746k                    1.9078 
     -32.7000m           1.000e+20                       1.5770k                    1.9111 
     -32.6000m           1.000e+20                       1.5795k                    1.9144 
     -32.5000m           1.000e+20                       1.5821k                    1.9177 
     -32.4000m           1.000e+20                       1.5846k                    1.9210 
     -32.3000m           1.000e+20                       1.5871k                    1.9244 
     -32.2000m           1.000e+20                       1.5897k                    1.9278 
     -32.1000m           1.000e+20                       1.5922k                    1.9311 
     -32.0000m           1.000e+20                       1.5948k                    1.9345 
     -31.9000m           1.000e+20                       1.5974k                    1.9380 
     -31.8000m           1.000e+20                       1.6000k                    1.9414 
     -31.7000m           1.000e+20                       1.6026k                    1.9449 
     -31.6000m           1.000e+20                       1.6053k                    1.9483 
     -31.5000m           1.000e+20                       1.6079k                    1.9518 
     -31.4000m           1.000e+20                       1.6106k                    1.9553 
     -31.3000m           1.000e+20                       1.6133k                    1.9589 
     -31.2000m           1.000e+20                       1.6160k                    1.9624 
     -31.1000m           1.000e+20                       1.6187k                    1.9660 
     -31.0000m           1.000e+20                       1.6214k                    1.9696 
     -30.9000m           1.000e+20                       1.6241k                    1.9732 
     -30.8000m           1.000e+20                       1.6269k                    1.9768 
     -30.7000m           1.000e+20                       1.6297k                    1.9805 
     -30.6000m           1.000e+20                       1.6325k                    1.9841 
     -30.5000m           1.000e+20                       1.6353k                    1.9878 
     -30.4000m           1.000e+20                       1.6381k                    1.9915 
     -30.3000m           1.000e+20                       1.6409k                    1.9953 
     -30.2000m           1.000e+20                       1.6438k                    1.9990 
     -30.1000m           1.000e+20                       1.6466k                    2.0028 
     -30.0000m           1.000e+20                       1.6495k                    2.0066 
     -29.9000m           1.000e+20                       1.6524k                    2.0104 
     -29.8000m           1.000e+20                       1.6553k                    2.0143 
     -29.7000m           1.000e+20                       1.6583k                    2.0181 
     -29.6000m           1.000e+20                       1.6612k                    2.0220 
     -29.5000m           1.000e+20                       1.6642k                    2.0259 
     -29.4000m           1.000e+20                       1.6672k                    2.0298 
     -29.3000m           1.000e+20                       1.6702k                    2.0338 
     -29.2000m           1.000e+20                       1.6732k                    2.0378 
     -29.1000m           1.000e+20                       1.6762k                    2.0418 
     -29.0000m           1.000e+20                       1.6793k                    2.0458 
     -28.9000m           1.000e+20                       1.6824k                    2.0498 
     -28.8000m           1.000e+20                       1.6855k                    2.0539 
     -28.7000m           1.000e+20                       1.6886k                    2.0580 
     -28.6000m           1.000e+20                       1.6917k                    2.0621 
     -28.5000m           1.000e+20                       1.6949k                    2.0663 
     -28.4000m           1.000e+20                       1.6980k                    2.0704 
     -28.3000m           1.000e+20                       1.7012k                    2.0746 
     -28.2000m           1.000e+20                       1.7045k                    2.0789 
     -28.1000m           1.000e+20                       1.7077k                    2.0831 
     -28.0000m           1.000e+20                       1.7109k                    2.0874 
     -27.9000m           1.000e+20                       1.7142k                    2.0917 
     -27.8000m           1.000e+20                       1.7175k                    2.0960 
     -27.7000m           1.000e+20                       1.7208k                    2.1004 
     -27.6000m           1.000e+20                       1.7242k                    2.1048 
     -27.5000m           1.000e+20                       1.7275k                    2.1092 
     -27.4000m           1.000e+20                       1.7309k                    2.1136 
     -27.3000m           1.000e+20                       1.7343k                    2.1181 
     -27.2000m           1.000e+20                       1.7377k                    2.1226 
     -27.1000m           1.000e+20                       1.7412k                    2.1271 
     -27.0000m           1.000e+20                       1.7446k                    2.1316 
     -26.9000m           1.000e+20                       1.7481k                    2.1362 
     -26.8000m           1.000e+20                       1.7516k                    2.1408 
     -26.7000m           1.000e+20                       1.7552k                    2.1455 
     -26.6000m           1.000e+20                       1.7587k                    2.1502 
     -26.5000m           1.000e+20                       1.7623k                    2.1549 
     -26.4000m           1.000e+20                       1.7659k                    2.1596 
     -26.3000m           1.000e+20                       1.7695k                    2.1644 
     -26.2000m           1.000e+20                       1.7732k                    2.1692 
     -26.1000m           1.000e+20                       1.7769k                    2.1740 
     -26.0000m           1.000e+20                       1.7806k                    2.1789 
     -25.9000m           1.000e+20                       1.7843k                    2.1838 
     -25.8000m           1.000e+20                       1.7881k                    2.1887 
     -25.7000m           1.000e+20                       1.7919k                    2.1937 
     -25.6000m           1.000e+20                       1.7957k                    2.1987 
     -25.5000m           1.000e+20                       1.7995k                    2.2037 
     -25.4000m           1.000e+20                       1.8034k                    2.2088 
     -25.3000m           1.000e+20                       1.8073k                    2.2139 
     -25.2000m           1.000e+20                       1.8112k                    2.2190 
     -25.1000m           1.000e+20                       1.8151k                    2.2242 
     -25.0000m           1.000e+20                       1.8191k                    2.2294 
     -24.9000m           1.000e+20                       1.8231k                    2.2347 
     -24.8000m           1.000e+20                       1.8271k                    2.2400 
     -24.7000m           1.000e+20                       1.8312k                    2.2453 
     -24.6000m           1.000e+20                       1.8353k                    2.2507 
     -24.5000m           1.000e+20                       1.8394k                    2.2561 
     -24.4000m           1.000e+20                       1.8436k                    2.2615 
     -24.3000m           1.000e+20                       1.8478k                    2.2670 
     -24.2000m           1.000e+20                       1.8520k                    2.2725 
     -24.1000m           1.000e+20                       1.8562k                    2.2781 
     -24.0000m           1.000e+20                       1.8605k                    2.2837 
     -23.9000m           1.000e+20                       1.8648k                    2.2894 
     -23.8000m           1.000e+20                       1.8692k                    2.2951 
     -23.7000m           1.000e+20                       1.8735k                    2.3008 
     -23.6000m           1.000e+20                       1.8779k                    2.3066 
     -23.5000m           1.000e+20                       1.8824k                    2.3124 
     -23.4000m           1.000e+20                       1.8869k                    2.3183 
     -23.3000m           1.000e+20                       1.8914k                    2.3242 
     -23.2000m           1.000e+20                       1.8959k                    2.3302 
     -23.1000m           1.000e+20                       1.9005k                    2.3362 
     -23.0000m           1.000e+20                       1.9052k                    2.3422 
     -22.9000m           1.000e+20                       1.9098k                    2.3483 
     -22.8000m           1.000e+20                       1.9145k                    2.3545 
     -22.7000m           1.000e+20                       1.9192k                    2.3607 
     -22.6000m           1.000e+20                       1.9240k                    2.3670 
     -22.5000m           1.000e+20                       1.9288k                    2.3733 
     -22.4000m           1.000e+20                       1.9337k                    2.3796 
     -22.3000m           1.000e+20                       1.9386k                    2.3860 
     -22.2000m           1.000e+20                       1.9435k                    2.3925 
     -22.1000m           1.000e+20                       1.9485k                    2.3990 
     -22.0000m           1.000e+20                       1.9535k                    2.4056 
     -21.9000m           1.000e+20                       1.9586k                    2.4122 
     -21.8000m           1.000e+20                       1.9637k                    2.4189 
     -21.7000m           1.000e+20                       1.9688k                    2.4257 
     -21.6000m           1.000e+20                       1.9740k                    2.4324 
     -21.5000m           1.000e+20                       1.9792k                    2.4393 
     -21.4000m           1.000e+20                       1.9845k                    2.4462 
     -21.3000m           1.000e+20                       1.9899k                    2.4532 
     -21.2000m           1.000e+20                       1.9952k                    2.4602 
     -21.1000m           1.000e+20                       2.0006k                    2.4673 
     -21.0000m           1.000e+20                       2.0061k                    2.4745 
     -20.9000m           1.000e+20                       2.0116k                    2.4817 
     -20.8000m           1.000e+20                       2.0172k                    2.4890 
     -20.7000m           1.000e+20                       2.0228k                    2.4964 
     -20.6000m           1.000e+20                       2.0285k                    2.5038 
     -20.5000m           1.000e+20                       2.0342k                    2.5113 
     -20.4000m           1.000e+20                       2.0400k                    2.5189 
     -20.3000m           1.000e+20                       2.0458k                    2.5265 
     -20.2000m           1.000e+20                       2.0517k                    2.5342 
     -20.1000m           1.000e+20                       2.0577k                    2.5420 
     -20.0000m           1.000e+20                       2.0636k                    2.5498 
     -19.9000m           1.000e+20                       2.0697k                    2.5578 
     -19.8000m           1.000e+20                       2.0758k                    2.5658 
     -19.7000m           1.000e+20                       2.0820k                    2.5738 
     -19.6000m           1.000e+20                       2.0882k                    2.5820 
     -19.5000m           1.000e+20                       2.0945k                    2.5902 
     -19.4000m           1.000e+20                       2.1009k                    2.5985 
     -19.3000m           1.000e+20                       2.1073k                    2.6069 
     -19.2000m           1.000e+20                       2.1138k                    2.6154 
     -19.1000m           1.000e+20                       2.1203k                    2.6240 
     -19.0000m           1.000e+20                       2.1269k                    2.6327 
     -18.9000m           1.000e+20                       2.1336k                    2.6414 
     -18.8000m           1.000e+20                       2.1404k                    2.6502 
     -18.7000m           1.000e+20                       2.1472k                    2.6592 
     -18.6000m           1.000e+20                       2.1541k                    2.6682 
     -18.5000m           1.000e+20                       2.1610k                    2.6773 
     -18.4000m           1.000e+20                       2.1681k                    2.6865 
     -18.3000m           1.000e+20                       2.1752k                    2.6958 
     -18.2000m           1.000e+20                       2.1824k                    2.7052 
     -18.1000m           1.000e+20                       2.1896k                    2.7147 
     -18.0000m           1.000e+20                       2.1970k                    2.7243 
     -17.9000m           1.000e+20                       2.2044k                    2.7340 
     -17.8000m           1.000e+20                       2.2119k                    2.7439 
     -17.7000m           1.000e+20                       2.2195k                    2.7538 
     -17.6000m           1.000e+20                       2.2272k                    2.7638 
     -17.5000m           1.000e+20                       2.2349k                    2.7740 
     -17.4000m           1.000e+20                       2.2428k                    2.7843 
     -17.3000m           1.000e+20                       2.2507k                    2.7947 
     -17.2000m           1.000e+20                       2.2588k                    2.8052 
     -17.1000m           1.000e+20                       2.2669k                    2.8158 
     -17.0000m           1.000e+20                       2.2751k                    2.8266 
     -16.9000m           1.000e+20                       2.2834k                    2.8374 
     -16.8000m           1.000e+20                       2.2918k                    2.8485 
     -16.7000m           1.000e+20                       2.3004k                    2.8596 
     -16.6000m           1.000e+20                       2.3090k                    2.8709 
     -16.5000m           1.000e+20                       2.3177k                    2.8823 
     -16.4000m           1.000e+20                       2.3266k                    2.8939 
     -16.3000m           1.000e+20                       2.3355k                    2.9056 
     -16.2000m           1.000e+20                       2.3446k                    2.9174 
     -16.1000m           1.000e+20                       2.3537k                    2.9294 
     -16.0000m           1.000e+20                       2.3630k                    2.9416 
     -15.9000m           1.000e+20                       2.3724k                    2.9539 
     -15.8000m           1.000e+20                       2.3820k                    2.9664 
     -15.7000m           1.000e+20                       2.3916k                    2.9790 
     -15.6000m           1.000e+20                       2.4014k                    2.9918 
     -15.5000m           1.000e+20                       2.4113k                    3.0048 
     -15.4000m           1.000e+20                       2.4214k                    3.0179 
     -15.3000m           1.000e+20                       2.4316k                    3.0313 
     -15.2000m           1.000e+20                       2.4419k                    3.0448 
     -15.1000m           1.000e+20                       2.4524k                    3.0585 
     -15.0000m           1.000e+20                       2.4630k                    3.0723 
     -14.9000m           1.000e+20                       2.4737k                    3.0864 
     -14.8000m           1.000e+20                       2.4847k                    3.1007 
     -14.7000m           1.000e+20                       2.4957k                    3.1152 
     -14.6000m           1.000e+20                       2.5070k                    3.1299 
     -14.5000m           1.000e+20                       2.5184k                    3.1448 
     -14.4000m           1.000e+20                       2.5299k                    3.1599 
     -14.3000m           1.000e+20                       2.5417k                    3.1753 
     -14.2000m           1.000e+20                       2.5536k                    3.1909 
     -14.1000m           1.000e+20                       2.5657k                    3.2067 
     -14.0000m           1.000e+20                       2.5780k                    3.2228 
     -13.9000m           1.000e+20                       2.5905k                    3.2391 
     -13.8000m           1.000e+20                       2.6032k                    3.2557 
     -13.7000m           1.000e+20                       2.6160k                    3.2726 
     -13.6000m           1.000e+20                       2.6291k                    3.2897 
     -13.5000m           1.000e+20                       2.6424k                    3.3071 
     -13.4000m           1.000e+20                       2.6559k                    3.3248 
     -13.3000m           1.000e+20                       2.6697k                    3.3427 
     -13.2000m           1.000e+20                       2.6837k                    3.3610 
     -13.1000m           1.000e+20                       2.6979k                    3.3796 
     -13.0000m           1.000e+20                       2.7123k                    3.3985 
     -12.9000m           1.000e+20                       2.7270k                    3.4178 
     -12.8000m           1.000e+20                       2.7420k                    3.4374 
     -12.7000m           1.000e+20                       2.7572k                    3.4573 
     -12.6000m           1.000e+20                       2.7727k                    3.4776 
     -12.5000m           1.000e+20                       2.7885k                    3.4982 
     -12.4000m           1.000e+20                       2.8046k                    3.5193 
     -12.3000m           1.000e+20                       2.8210k                    3.5407 
     -12.2000m           1.000e+20                       2.8377k                    3.5626 
     -12.1000m           1.000e+20                       2.8547k                    3.5848 
     -12.0000m           1.000e+20                       2.8721k                    3.6075 
     -11.9000m           1.000e+20                       2.8898k                    3.6307 
     -11.8000m           1.000e+20                       2.9078k                    3.6543 
     -11.7000m           1.000e+20                       2.9262k                    3.6784 
     -11.6000m           1.000e+20                       2.9450k                    3.7030 
     -11.5000m           1.000e+20                       2.9642k                    3.7281 
     -11.4000m           1.000e+20                       2.9838k                    3.7537 
     -11.3000m           1.000e+20                       3.0038k                    3.7799 
     -11.2000m           1.000e+20                       3.0242k                    3.8066 
     -11.1000m           1.000e+20                       3.0451k                    3.8340 
     -11.0000m           1.000e+20                       3.0665k                    3.8619 
     -10.9000m           1.000e+20                       3.0883k                    3.8905 
     -10.8000m           1.000e+20                       3.1107k                    3.9198 
     -10.7000m           1.000e+20                       3.1336k                    3.9497 
     -10.6000m           1.000e+20                       3.1570k                    3.9804 
     -10.5000m           1.000e+20                       3.1810k                    4.0118 
     -10.4000m           1.000e+20                       3.2055k                    4.0439 
     -10.3000m           1.000e+20                       3.2307k                    4.0769 
     -10.2000m           1.000e+20                       3.2566k                    4.1107 
     -10.1000m           1.000e+20                       3.2831k                    4.1454 
     -10.0000m           1.000e+20                       3.3103k                    4.1811 
      -9.9000m           1.000e+20                       3.3382k                    4.2176 
      -9.8000m           1.000e+20                       3.3669k                    4.2552 
      -9.7000m           1.000e+20                       3.3964k                    4.2938 
      -9.6000m           1.000e+20                       3.4268k                    4.3335 
      -9.5000m           1.000e+20                       3.4580k                    4.3744 
      -9.4000m           1.000e+20                       3.4901k                    4.4165 
      -9.3000m           1.000e+20                       3.5233k                    4.4599 
      -9.2000m           1.000e+20                       3.5574k                    4.5045 
      -9.1000m           1.000e+20                       3.5926k                    4.5506 
      -9.0000m           1.000e+20                       3.6289k                    4.5982 
      -8.9000m           1.000e+20                       3.6664k                    4.6473 
      -8.8000m           1.000e+20                       3.7052k                    4.6981 
      -8.7000m           1.000e+20                       3.7453k                    4.7506 
      -8.6000m           1.000e+20                       3.7868k                    4.8050 
      -8.5000m           1.000e+20                       3.8298k                    4.8613 
      -8.4000m           1.000e+20                       3.8744k                    4.9197 
      -8.3000m           1.000e+20                       3.9207k                    4.9803 
      -8.2000m           1.000e+20                       3.9688k                    5.0433 
      -8.1000m           1.000e+20                       4.0187k                    5.1087 
      -8.0000m           1.000e+20                       4.0708k                    5.1769 
      -7.9000m           1.000e+20                       4.1250k                    5.2479 
      -7.8000m           1.000e+20                       4.1815k                    5.3219 
      -7.7000m           1.000e+20                       4.2406k                    5.3993 
      -7.6000m           1.000e+20                       4.3024k                    5.4803 
      -7.5000m           1.000e+20                       4.3671k                    5.5650 
      -7.4000m           1.000e+20                       4.4350k                    5.6540 
      -7.3000m           1.000e+20                       4.5063k                    5.7474 
      -7.2000m           1.000e+20                       4.5813k                    5.8457 
      -7.1000m           1.000e+20                       4.6604k                    5.9493 
      -7.0000m           1.000e+20                       4.7440k                    6.0588 
      -6.9000m           1.000e+20                       4.8324k                    6.1747 
      -6.8000m           1.000e+20                       4.9262k                    6.2977 
      -6.7000m           1.000e+20                       5.0260k                    6.4285 
      -6.6000m           1.000e+20                       5.1324k                    6.5679 
      -6.5000m           1.000e+20                       5.2462k                    6.7170 
      -6.4000m           1.000e+20                       5.3682k                    6.8770 
      -6.3000m           1.000e+20                       5.4996k                    7.0492 
      -6.2000m           1.000e+20                       5.6416k                    7.2353 
      -6.1000m           1.000e+20                       5.7956k                    7.4373 
      -6.0000m           1.000e+20                       5.9636k                    7.6575 
      -5.9000m           1.000e+20                       6.1477k                    7.8989 
      -5.8000m           1.000e+20                       6.3507k                    8.1651 
      -5.7000m           1.000e+20                       6.5761k                    8.4607 
      -5.6000m           1.000e+20                       6.8284k                    8.7914 
      -5.5000m           1.000e+20                       7.1133k                    9.1650 
      -5.4000m           1.000e+20                       7.4385k                    9.5916 
      -5.3000m           1.000e+20                       7.8146k                   10.0849 
      -5.2000m           1.000e+20                       8.2565k                   10.6644 
      -5.1000m           1.000e+20                       8.7857k                   11.3586 
      -5.0000m           1.000e+20                       9.4356k                   12.2111 
      -4.9000m           1.000e+20                      10.2603k                   13.2930 
      -4.8000m           1.000e+20                      11.3556k                   14.7299 
      -4.7000m           1.000e+20                      12.9115k                   16.7713 
      -4.6000m           1.000e+20                      15.3792k                   20.0091 
      -4.5000m           1.000e+20                      20.2386k                   26.3855 
      -4.4000m           1.000e+20                      39.1005k                   51.1372 
      -4.3000m           1.000e+20                      67.2195k                   88.0295 
      -4.2000m           1.000e+20                      67.3199k                   88.1502 
      -4.1000m           1.000e+20                      67.4269k                   88.2796 
      -4.0000m           1.000e+20                      67.5412k                   88.4183 
      -3.9000m           1.000e+20                      67.6634k                   88.5671 
      -3.8000m           1.000e+20                      67.7940k                   88.7269 
      -3.7000m           1.000e+20                      67.9339k                   88.8985 
      -3.6000m           1.000e+20                      68.0839k                   89.0831 
      -3.5000m           1.000e+20                      68.2448k                   89.2819 
      -3.4000m           1.000e+20                      68.4177k                   89.4962 
      -3.3000m           1.000e+20                      68.6038k                   89.7274 
      -3.2000m           1.000e+20                      68.8043k                   89.9773 
      -3.1000m           1.000e+20                      69.0208k                   90.2478 
      -3.0000m           1.000e+20                      69.2549k                   90.5410 
      -2.9000m           1.000e+20                      69.5086k                   90.8594 
      -2.8000m           1.000e+20                      69.7840k                   91.2059 
      -2.7000m           1.000e+20                      70.0835k                   91.5837 
      -2.6000m           1.000e+20                      70.4103k                   91.9965 
      -2.5000m           1.000e+20                      70.7675k                   92.4488 
      -2.4000m           1.000e+20                      71.1592k                   92.9455 
      -2.3000m           1.000e+20                      71.5899k                   93.4928 
      -2.2000m           1.000e+20                      72.0652k                   94.0977 
      -2.1000m           1.000e+20                      72.5916k                   94.7687 
      -2.0000m           1.000e+20                      73.1769k                   95.5159 
      -1.9000m           1.000e+20                      73.8306k                   96.3515 
      -1.8000m           1.000e+20                      74.5642k                   97.2906 
      -1.7000m           1.000e+20                      75.3922k                   98.3518 
      -1.6000m           1.000e+20                      76.3323k                   99.5583 
      -1.5000m           1.000e+20                      77.4074k                  100.9395 
      -1.4000m           1.000e+20                      78.6467k                  102.5334 
      -1.3000m           1.000e+20                      80.0884k                  104.3895 
      -1.2000m           1.000e+20                      81.7839k                  106.5745 
      -1.1000m           1.000e+20                      83.8034k                  109.1794 
      -1.0000m           1.000e+20                      86.2460k                  112.3328 
    -900.0000u           1.000e+20                      89.2566k                  116.2226 
    -800.0000u           1.000e+20                      93.0562k                  121.1355 
    -700.0000u           1.000e+20                      98.0018k                  127.5348 
    -600.0000u           1.000e+20                     104.7135k                  136.2253 
    -500.0000u           1.000e+20                     114.3870k                  148.7589 
    -400.0000u           1.000e+20                     129.7131k                  168.6284 
    -300.0000u           1.000e+20                     158.5794k                  206.0733 
    -200.0000u           1.000e+20                     244.1642k                  317.1548 
    -100.0000u           1.000e+20                      19.0146x                   24.6921k
      -6.9389a           1.000e+20                      20.4671x                   26.5781k
     100.0000u           1.000e+20                     410.2730k                  532.5445 
     200.0000u           1.000e+20                     325.7333k                  422.5689 
     300.0000u           1.000e+20                     295.3606k                  382.9244 
     400.0000u           1.000e+20                     279.9311k                  362.6771 
     500.0000u           1.000e+20                     270.7353k                  350.5191 
     600.0000u           1.000e+20                     264.7025k                  342.4643 
     700.0000u           1.000e+20                     260.4766k                  336.7530 
     800.0000u           1.000e+20                     257.3686k                  332.4910 
     900.0000u           1.000e+20                     254.9941k                  329.1799 
       1.0000m           1.000e+20                     253.1231k                  326.5213 
       1.1000m           1.000e+20                     251.6103k                  324.3269 
       1.2000m           1.000e+20                      19.6109k                   24.7279 
       1.3000m           1.000e+20                      14.2971k                   17.8681 
       1.4000m           1.000e+20                      11.4027k                   14.1319 
       1.5000m           1.000e+20                       9.7728k                   12.0282 
       1.6000m           1.000e+20                       8.6929k                   10.6345 
       1.7000m           1.000e+20                       7.9106k                    9.6249 
       1.8000m           1.000e+20                       7.3102k                    8.8503 
       1.9000m           1.000e+20                       6.8308k                    8.2317 
       2.0000m           1.000e+20                       6.4365k                    7.7230 
       2.1000m           1.000e+20                       6.1047k                    7.2951 
       2.2000m           1.000e+20                       5.8205k                    6.9286 
       2.3000m           1.000e+20                       5.5735k                    6.6101 
       2.4000m           1.000e+20                       5.3563k                    6.3300 
       2.5000m           1.000e+20                       5.1633k                    6.0811 
       2.6000m           1.000e+20                       4.9902k                    5.8581 
       2.7000m           1.000e+20                       4.8340k                    5.6567 
       2.8000m           1.000e+20                       4.6920k                    5.4737 
       2.9000m           1.000e+20                       4.5622k                    5.3064 
       3.0000m           1.000e+20                       4.4429k                    5.1528 
       3.1000m           1.000e+20                       4.3328k                    5.0110 
       3.2000m           1.000e+20                       4.2308k                    4.8796 
       3.3000m           1.000e+20                       4.1358k                    4.7573 
       3.4000m           1.000e+20                       4.0473k                    4.6433 
       3.5000m           1.000e+20                       3.9644k                    4.5366 
       3.6000m           1.000e+20                       3.8865k                    4.4364 
       3.7000m           1.000e+20                       3.8133k                    4.3421 
       3.8000m           1.000e+20                       3.7442k                    4.2532 
       3.9000m           1.000e+20                       3.6788k                    4.1691 
       4.0000m           1.000e+20                       3.6169k                    4.0895 
       4.1000m           1.000e+20                       3.5582k                    4.0139 
       4.2000m           1.000e+20                       3.5023k                    3.9421 
       4.3000m           1.000e+20                       3.4491k                    3.8737 
       4.4000m           1.000e+20                       3.3983k                    3.8084 
       4.5000m           1.000e+20                       3.3499k                    3.7461 
       4.6000m           1.000e+20                       3.3035k                    3.6865 
       4.7000m           1.000e+20                       3.2591k                    3.6294 
       4.8000m           1.000e+20                       3.2165k                    3.5747 
       4.9000m           1.000e+20                       3.1756k                    3.5222 
       5.0000m           1.000e+20                       3.1363k                    3.4717 
       5.1000m           1.000e+20                       3.0985k                    3.4232 
       5.2000m           1.000e+20                       3.0621k                    3.3765 
       5.3000m           1.000e+20                       3.0270k                    3.3314 
       5.4000m           1.000e+20                       2.9931k                    3.2880 
       5.5000m           1.000e+20                       2.9605k                    3.2460 
       5.6000m           1.000e+20                       2.9289k                    3.2055 
       5.7000m           1.000e+20                       2.8983k                    3.1663 
       5.8000m           1.000e+20                       2.8688k                    3.1284 
       5.9000m           1.000e+20                       2.8401k                    3.0917 
       6.0000m           1.000e+20                       2.8124k                    3.0561 
       6.1000m           1.000e+20                       2.7855k                    3.0216 
       6.2000m           1.000e+20                       2.7594k                    2.9881 
       6.3000m           1.000e+20                       2.7340k                    2.9557 
       6.4000m           1.000e+20                       2.7094k                    2.9241 
       6.5000m           1.000e+20                       2.6854k                    2.8934 
       6.6000m           1.000e+20                       2.6622k                    2.8636 
       6.7000m           1.000e+20                       2.6395k                    2.8346 
       6.8000m           1.000e+20                       2.6174k                    2.8064 
       6.9000m           1.000e+20                       2.5960k                    2.7789 
       7.0000m           1.000e+20                       2.5750k                    2.7521 
       7.1000m           1.000e+20                       2.5546k                    2.7260 
       7.2000m           1.000e+20                       2.5347k                    2.7006 
       7.3000m           1.000e+20                       2.5153k                    2.6757 
       7.4000m           1.000e+20                       2.4964k                    2.6515 
       7.5000m           1.000e+20                       2.4779k                    2.6278 
       7.6000m           1.000e+20                       2.4598k                    2.6047 
       7.7000m           1.000e+20                       2.4421k                    2.5822 
       7.8000m           1.000e+20                       2.4249k                    2.5601 
       7.9000m           1.000e+20                       2.4080k                    2.5385 
       8.0000m           1.000e+20                       2.3915k                    2.5174 
       8.1000m           1.000e+20                       2.3753k                    2.4968 
       8.2000m           1.000e+20                       2.3595k                    2.4766 
       8.3000m           1.000e+20                       2.3440k                    2.4569 
       8.4000m           1.000e+20                       2.3289k                    2.4375 
       8.5000m           1.000e+20                       2.3140k                    2.4186 
       8.6000m           1.000e+20                       2.2995k                    2.4000 
       8.7000m           1.000e+20                       2.2852k                    2.3818 
       8.8000m           1.000e+20                       2.2712k                    2.3639 
       8.9000m           1.000e+20                       2.2575k                    2.3464 
       9.0000m           1.000e+20                       2.2440k                    2.3293 
       9.1000m           1.000e+20                       2.2308k                    2.3125 
       9.2000m           1.000e+20                       2.2179k                    2.2959 
       9.3000m           1.000e+20                       2.2051k                    2.2797 
       9.4000m           1.000e+20                       2.1927k                    2.2638 
       9.5000m           1.000e+20                       2.1804k                    2.2482 
       9.6000m           1.000e+20                       2.1683k                    2.2329 
       9.7000m           1.000e+20                       2.1565k                    2.2178 
       9.8000m           1.000e+20                       2.1449k                    2.2030 
       9.9000m           1.000e+20                       2.1334k                    2.1884 
      10.0000m           1.000e+20                       2.1222k                    2.1741 
      10.1000m           1.000e+20                       2.1111k                    2.1601 
      10.2000m           1.000e+20                       2.1003k                    2.1462 
      10.3000m           1.000e+20                       2.0896k                    2.1326 
      10.4000m           1.000e+20                       2.0791k                    2.1193 
      10.5000m           1.000e+20                       2.0687k                    2.1061 
      10.6000m           1.000e+20                       2.0585k                    2.0932 
      10.7000m           1.000e+20                       2.0485k                    2.0804 
      10.8000m           1.000e+20                       2.0386k                    2.0679 
      10.9000m           1.000e+20                       2.0289k                    2.0555 
      11.0000m           1.000e+20                       2.0193k                    2.0434 
      11.1000m           1.000e+20                       2.0099k                    2.0314 
      11.2000m           1.000e+20                       2.0006k                    2.0196 
      11.3000m           1.000e+20                       1.9914k                    2.0080 
      11.4000m           1.000e+20                       1.9824k                    1.9965 
      11.5000m           1.000e+20                       1.9735k                    1.9852 
      11.6000m           1.000e+20                       1.9648k                    1.9741 
      11.7000m           1.000e+20                       1.9561k                    1.9632 
      11.8000m           1.000e+20                       1.9476k                    1.9524 
      11.9000m           1.000e+20                       1.9392k                    1.9417 
      12.0000m           1.000e+20                       1.9309k                    1.9312 
      12.1000m           1.000e+20                       1.9227k                    1.9209 
      12.2000m           1.000e+20                       1.9147k                    1.9107 
      12.3000m           1.000e+20                       1.9067k                    1.9006 
      12.4000m           1.000e+20                       1.8989k                    1.8907 
      12.5000m           1.000e+20                       1.8911k                    1.8809 
      12.6000m           1.000e+20                       1.8835k                    1.8712 
      12.7000m           1.000e+20                       1.8759k                    1.8616 
      12.8000m           1.000e+20                       1.8685k                    1.8522 
      12.9000m           1.000e+20                       1.8611k                    1.8429 
      13.0000m           1.000e+20                       1.8539k                    1.8337 
      13.1000m           1.000e+20                       1.8467k                    1.8247 
      13.2000m           1.000e+20                       1.8396k                    1.8157 
      13.3000m           1.000e+20                       1.8326k                    1.8069 
      13.4000m           1.000e+20                       1.8257k                    1.7981 
      13.5000m           1.000e+20                       1.8189k                    1.7895 
      13.6000m           1.000e+20                       1.8122k                    1.7810 
      13.7000m           1.000e+20                       1.8055k                    1.7726 
      13.8000m           1.000e+20                       1.7989k                    1.7643 
      13.9000m           1.000e+20                       1.7924k                    1.7561 
      14.0000m           1.000e+20                       1.7860k                    1.7480 
      14.1000m           1.000e+20                       1.7796k                    1.7399 
      14.2000m           1.000e+20                       1.7733k                    1.7320 
      14.3000m           1.000e+20                       1.7671k                    1.7242 
      14.4000m           1.000e+20                       1.7610k                    1.7164 
      14.5000m           1.000e+20                       1.7549k                    1.7088 
      14.6000m           1.000e+20                       1.7489k                    1.7012 
      14.7000m           1.000e+20                       1.7430k                    1.6937 
      14.8000m           1.000e+20                       1.7371k                    1.6863 
      14.9000m           1.000e+20                       1.7313k                    1.6790 
      15.0000m           1.000e+20                       1.7255k                    1.6717 
      15.1000m           1.000e+20                       1.7199k                    1.6646 
      15.2000m           1.000e+20                       1.7142k                    1.6575 
      15.3000m           1.000e+20                       1.7087k                    1.6505 
      15.4000m           1.000e+20                       1.7031k                    1.6436 
      15.5000m           1.000e+20                       1.6977k                    1.6367 
      15.6000m           1.000e+20                       1.6923k                    1.6299 
      15.7000m           1.000e+20                       1.6870k                    1.6232 
      15.8000m           1.000e+20                       1.6817k                    1.6166 
      15.9000m           1.000e+20                       1.6764k                    1.6100 
      16.0000m           1.000e+20                       1.6713k                    1.6035 
      16.1000m           1.000e+20                       1.6661k                    1.5970 
      16.2000m           1.000e+20                       1.6611k                    1.5906 
      16.3000m           1.000e+20                       1.6560k                    1.5843 
      16.4000m           1.000e+20                       1.6511k                    1.5781 
      16.5000m           1.000e+20                       1.6461k                    1.5719 
      16.6000m           1.000e+20                       1.6412k                    1.5658 
      16.7000m           1.000e+20                       1.6364k                    1.5597 
      16.8000m           1.000e+20                       1.6316k                    1.5537 
      16.9000m           1.000e+20                       1.6269k                    1.5477 
      17.0000m           1.000e+20                       1.6222k                    1.5418 
      17.1000m           1.000e+20                       1.6175k                    1.5360 
      17.2000m           1.000e+20                       1.6129k                    1.5302 
      17.3000m           1.000e+20                       1.6083k                    1.5245 
      17.4000m           1.000e+20                       1.6038k                    1.5188 
      17.5000m           1.000e+20                       1.5993k                    1.5132 
      17.6000m           1.000e+20                       1.5949k                    1.5076 
      17.7000m           1.000e+20                       1.5905k                    1.5021 
      17.8000m           1.000e+20                       1.5861k                    1.4967 
      17.9000m           1.000e+20                       1.5818k                    1.4912 
      18.0000m           1.000e+20                       1.5775k                    1.4859 
      18.1000m           1.000e+20                       1.5733k                    1.4806 
      18.2000m           1.000e+20                       1.5690k                    1.4753 
      18.3000m           1.000e+20                       1.5649k                    1.4701 
      18.4000m           1.000e+20                       1.5607k                    1.4649 
      18.5000m           1.000e+20                       1.5566k                    1.4597 
      18.6000m           1.000e+20                       1.5526k                    1.4547 
      18.7000m           1.000e+20                       1.5485k                    1.4496 
      18.8000m           1.000e+20                       1.5445k                    1.4446 
      18.9000m           1.000e+20                       1.5405k                    1.4397 
      19.0000m           1.000e+20                       1.5366k                    1.4347 
      19.1000m           1.000e+20                       1.5327k                    1.4299 
      19.2000m           1.000e+20                       1.5288k                    1.4250 
      19.3000m           1.000e+20                       1.5250k                    1.4203 
      19.4000m           1.000e+20                       1.5212k                    1.4155 
      19.5000m           1.000e+20                       1.5174k                    1.4108 
      19.6000m           1.000e+20                       1.5137k                    1.4061 
      19.7000m           1.000e+20                       1.5100k                    1.4015 
      19.8000m           1.000e+20                       1.5063k                    1.3969 
      19.9000m           1.000e+20                       1.5026k                    1.3923 
      20.0000m           1.000e+20                       1.4990k                    1.3878 
      20.1000m           1.000e+20                       1.4954k                    1.3833 
      20.2000m           1.000e+20                       1.4918k                    1.3789 
      20.3000m           1.000e+20                       1.4883k                    1.3745 
      20.4000m           1.000e+20                       1.4848k                    1.3701 
      20.5000m           1.000e+20                       1.4813k                    1.3658 
      20.6000m           1.000e+20                       1.4778k                    1.3614 
      20.7000m           1.000e+20                       1.4744k                    1.3572 
      20.8000m           1.000e+20                       1.4710k                    1.3529 
      20.9000m           1.000e+20                       1.4676k                    1.3487 
      21.0000m           1.000e+20                       1.4643k                    1.3446 
      21.1000m           1.000e+20                       1.4609k                    1.3404 
      21.2000m           1.000e+20                       1.4576k                    1.3363 
      21.3000m           1.000e+20                       1.4543k                    1.3322 
      21.4000m           1.000e+20                       1.4511k                    1.3282 
      21.5000m           1.000e+20                       1.4478k                    1.3241 
      21.6000m           1.000e+20                       1.4446k                    1.3202 
      21.7000m           1.000e+20                       1.4414k                    1.3162 
      21.8000m           1.000e+20                       1.4383k                    1.3123 
      21.9000m           1.000e+20                       1.4351k                    1.3084 
      22.0000m           1.000e+20                       1.4320k                    1.3045 
      22.1000m           1.000e+20                       1.4289k                    1.3007 
      22.2000m           1.000e+20                       1.4258k                    1.2968 
      22.3000m           1.000e+20                       1.4228k                    1.2930 
      22.4000m           1.000e+20                       1.4198k                    1.2893 
      22.5000m           1.000e+20                       1.4167k                    1.2856 
      22.6000m           1.000e+20                       1.4138k                    1.2818 
      22.7000m           1.000e+20                       1.4108k                    1.2782 
      22.8000m           1.000e+20                       1.4078k                    1.2745 
      22.9000m           1.000e+20                       1.4049k                    1.2709 
      23.0000m           1.000e+20                       1.4020k                    1.2673 
      23.1000m           1.000e+20                       1.3991k                    1.2637 
      23.2000m           1.000e+20                       1.3962k                    1.2601 
      23.3000m           1.000e+20                       1.3934k                    1.2566 
      23.4000m           1.000e+20                       1.3906k                    1.2531 
      23.5000m           1.000e+20                       1.3878k                    1.2496 
      23.6000m           1.000e+20                       1.3850k                    1.2462 
      23.7000m           1.000e+20                       1.3822k                    1.2427 
      23.8000m           1.000e+20                       1.3794k                    1.2393 
      23.9000m           1.000e+20                       1.3767k                    1.2360 
      24.0000m           1.000e+20                       1.3740k                    1.2326 
      24.1000m           1.000e+20                       1.3713k                    1.2292 
      24.2000m           1.000e+20                       1.3686k                    1.2259 
      24.3000m           1.000e+20                       1.3659k                    1.2226 
      24.4000m           1.000e+20                       1.3633k                    1.2194 
      24.5000m           1.000e+20                       1.3606k                    1.2161 
      24.6000m           1.000e+20                       1.3580k                    1.2129 
      24.7000m           1.000e+20                       1.3554k                    1.2097 
      24.8000m           1.000e+20                       1.3528k                    1.2065 
      24.9000m           1.000e+20                       1.3503k                    1.2033 
      25.0000m           1.000e+20                       1.3477k                    1.2002 
      25.1000m           1.000e+20                       1.3452k                    1.1970 
      25.2000m           1.000e+20                       1.3427k                    1.1939 
      25.3000m           1.000e+20                       1.3402k                    1.1908 
      25.4000m           1.000e+20                       1.3377k                    1.1878 
      25.5000m           1.000e+20                       1.3352k                    1.1847 
      25.6000m           1.000e+20                       1.3327k                    1.1817 
      25.7000m           1.000e+20                       1.3303k                    1.1787 
      25.8000m           1.000e+20                       1.3279k                    1.1757 
      25.9000m           1.000e+20                       1.3254k                    1.1727 
      26.0000m           1.000e+20                       1.3230k                    1.1697 
      26.1000m           1.000e+20                       1.3207k                    1.1668 
      26.2000m           1.000e+20                       1.3183k                    1.1639 
      26.3000m           1.000e+20                       1.3159k                    1.1610 
      26.4000m           1.000e+20                       1.3136k                    1.1581 
      26.5000m           1.000e+20                       1.3113k                    1.1552 
      26.6000m           1.000e+20                       1.3089k                    1.1524 
      26.7000m           1.000e+20                       1.3066k                    1.1496 
      26.8000m           1.000e+20                       1.3043k                    1.1467 
      26.9000m           1.000e+20                       1.3021k                    1.1439 
      27.0000m           1.000e+20                       1.2998k                    1.1412 
      27.1000m           1.000e+20                       1.2976k                    1.1384 
      27.2000m           1.000e+20                       1.2953k                    1.1356 
      27.3000m           1.000e+20                       1.2931k                    1.1329 
      27.4000m           1.000e+20                       1.2909k                    1.1302 
      27.5000m           1.000e+20                       1.2887k                    1.1275 
      27.6000m           1.000e+20                       1.2865k                    1.1248 
      27.7000m           1.000e+20                       1.2843k                    1.1221 
      27.8000m           1.000e+20                       1.2822k                    1.1195 
      27.9000m           1.000e+20                       1.2800k                    1.1169 
[...]
      37.9000m           1.000e+20                       1.1114k                  911.6485m
      38.0000m           1.000e+20                       1.1100k                  910.0425m
      38.1000m           1.000e+20                       1.1087k                  908.4432m
      38.2000m           1.000e+20                       1.1074k                  906.8505m
      38.3000m           1.000e+20                       1.1061k                  905.2646m
      38.4000m           1.000e+20                       1.1048k                  903.6852m
      38.5000m           1.000e+20                       1.1034k                  902.1124m
      38.6000m           1.000e+20                       1.1021k                  900.5461m
      38.7000m           1.000e+20                       1.1008k                  898.9863m
      38.8000m           1.000e+20                       1.0996k                  897.4330m
      38.9000m           1.000e+20                       1.0983k                  895.8860m
      39.0000m           1.000e+20                       1.0970k                  894.3454m
      39.1000m           1.000e+20                       1.0957k                  892.8110m
      39.2000m           1.000e+20                       1.0944k                  891.2830m
      39.3000m           1.000e+20                       1.0932k                  889.7611m
      39.4000m           1.000e+20                       1.0919k                  888.2455m
      39.5000m           1.000e+20                       1.0907k                  886.7359m
      39.6000m           1.000e+20                       1.0894k                  885.2325m
      39.7000m           1.000e+20                       1.0882k                  883.7351m
      39.8000m           1.000e+20                       1.0869k                  882.2438m
      39.9000m           1.000e+20                       1.0857k                  880.7584m
      40.0000m           1.000e+20                       1.0845k                  879.2789m
      40.1000m           1.000e+20                       1.0832k                  877.8054m
      40.2000m           1.000e+20                       1.0820k                  876.3377m
      40.3000m           1.000e+20                       1.0808k                  874.8758m
      40.4000m           1.000e+20                       1.0796k                  873.4197m
      40.5000m           1.000e+20                       1.0784k                  871.9694m
      40.6000m           1.000e+20                       1.0772k                  870.5248m
      40.7000m           1.000e+20                       1.0760k                  869.0858m
      40.8000m           1.000e+20                       1.0748k                  867.6525m
      40.9000m           1.000e+20                       1.0736k                  866.2248m
      41.0000m           1.000e+20                       1.0724k                  864.8027m
      41.1000m           1.000e+20                       1.0712k                  863.3861m
      41.2000m           1.000e+20                       1.0700k                  861.9750m
      41.3000m           1.000e+20                       1.0689k                  860.5693m
      41.4000m           1.000e+20                       1.0677k                  859.1691m
      41.5000m           1.000e+20                       1.0665k                  857.7742m
      41.6000m           1.000e+20                       1.0654k                  856.3847m
      41.7000m           1.000e+20                       1.0642k                  855.0006m
      41.8000m           1.000e+20                       1.0631k                  853.6217m
      41.9000m           1.000e+20                       1.0619k                  852.2481m
      42.0000m           1.000e+20                       1.0608k                  850.8797m
      42.1000m           1.000e+20                       1.0597k                  849.5165m
      42.2000m           1.000e+20                       1.0585k                  848.1584m
      42.3000m           1.000e+20                       1.0574k                  846.8055m
      42.4000m           1.000e+20                       1.0563k                  845.4577m
      42.5000m           1.000e+20                       1.0551k                  844.1150m
      42.6000m           1.000e+20                       1.0540k                  842.7772m
      42.7000m           1.000e+20                       1.0529k                  841.4445m
      42.8000m           1.000e+20                       1.0518k                  840.1168m
      42.9000m           1.000e+20                       1.0507k                  838.7940m
      43.0000m           1.000e+20                       1.0496k                  837.4761m
      43.1000m           1.000e+20                       1.0485k                  836.1631m
      43.2000m           1.000e+20                       1.0474k                  834.8549m
      43.3000m           1.000e+20                       1.0463k                  833.5516m
      43.4000m           1.000e+20                       1.0452k                  832.2530m
      43.5000m           1.000e+20                       1.0441k                  830.9592m
      43.6000m           1.000e+20                       1.0431k                  829.6702m
      43.7000m           1.000e+20                       1.0420k                  828.3859m
      43.8000m           1.000e+20                       1.0409k                  827.1062m
      43.9000m           1.000e+20                       1.0399k                  825.8312m
      44.0000m           1.000e+20                       1.0388k                  824.5608m
      44.1000m           1.000e+20                       1.0377k                  823.2950m
      44.2000m           1.000e+20                       1.0367k                  822.0338m
      44.3000m           1.000e+20                       1.0356k                  820.7771m
      44.4000m           1.000e+20                       1.0346k                  819.5250m
      44.5000m           1.000e+20                       1.0335k                  818.2773m
      44.6000m           1.000e+20                       1.0325k                  817.0341m
      44.7000m           1.000e+20                       1.0315k                  815.7953m
      44.8000m           1.000e+20                       1.0304k                  814.5609m
      44.9000m           1.000e+20                       1.0294k                  813.3309m
      45.0000m           1.000e+20                       1.0284k                  812.1053m
      45.1000m           1.000e+20                       1.0273k                  810.8840m
      45.2000m           1.000e+20                       1.0263k                  809.6670m
      45.3000m           1.000e+20                       1.0253k                  808.4543m
      45.4000m           1.000e+20                       1.0243k                  807.2459m
      45.5000m           1.000e+20                       1.0233k                  806.0417m
      45.6000m           1.000e+20                       1.0223k                  804.8417m
      45.7000m           1.000e+20                       1.0213k                  803.6459m
      45.8000m           1.000e+20                       1.0203k                  802.4542m
      45.9000m           1.000e+20                       1.0193k                  801.2667m
      46.0000m           1.000e+20                       1.0183k                  800.0833m
      46.1000m           1.000e+20                       1.0173k                  798.9040m
      46.2000m           1.000e+20                       1.0163k                  797.7287m
      46.3000m           1.000e+20                       1.0153k                  796.5575m
      46.4000m           1.000e+20                       1.0143k                  795.3903m
      46.5000m           1.000e+20                       1.0134k                  794.2271m
      46.6000m           1.000e+20                       1.0124k                  793.0679m
      46.7000m           1.000e+20                       1.0114k                  791.9127m
      46.8000m           1.000e+20                       1.0104k                  790.7613m
      46.9000m           1.000e+20                       1.0095k                  789.6139m
      47.0000m           1.000e+20                       1.0085k                  788.4704m
      47.1000m           1.000e+20                       1.0076k                  787.3307m
      47.2000m           1.000e+20                       1.0066k                  786.1949m
      47.3000m           1.000e+20                       1.0057k                  785.0629m
      47.4000m           1.000e+20                       1.0047k                  783.9347m
      47.5000m           1.000e+20                       1.0038k                  782.8103m
      47.6000m           1.000e+20                       1.0028k                  781.6897m
      47.7000m           1.000e+20                       1.0019k                  780.5728m
      47.8000m           1.000e+20                       1.0009k                  779.4596m
      47.9000m           1.000e+20                       1.0000k                  778.3501m
      48.0000m           1.000e+20                     999.0810                   777.2442m
      48.1000m           1.000e+20                     998.1536                   776.1421m
      48.2000m           1.000e+20                     997.2291                   775.0435m
      48.3000m           1.000e+20                     996.3076                   773.9486m
      48.4000m           1.000e+20                     995.3890                   772.8573m
      48.5000m           1.000e+20                     994.4733                   771.7696m
      48.6000m           1.000e+20                     993.5605                   770.6854m
      48.7000m           1.000e+20                     992.6506                   769.6048m
      48.8000m           1.000e+20                     991.7435                   768.5277m
      48.9000m           1.000e+20                     990.8393                   767.4541m
      49.0000m           1.000e+20                     989.9379                   766.3840m
      49.1000m           1.000e+20                     989.0393                   765.3173m
      49.2000m           1.000e+20                     988.1435                   764.2541m
      49.3000m           1.000e+20                     987.2505                   763.1943m
      49.4000m           1.000e+20                     986.3603                   762.1379m
      49.5000m           1.000e+20                     985.4729                   761.0850m
      49.6000m           1.000e+20                     984.5881                   760.0354m
      49.7000m           1.000e+20                     983.7062                   758.9891m
      49.8000m           1.000e+20                     982.8269                   757.9462m
      49.9000m           1.000e+20                     981.9503                   756.9066m
      50.0000m           1.000e+20                     981.0764                   755.8703m
  
 **info** dc convergence successful at Newton-Raphson method 
1****** HSPICE -- K-2015.06-3 win64 (Aug  6 2015) ******                        
 ******  
 .title opa_open_loop

 ****** operating point information tnom=  25.000 temp=  27.000 ******
 ****** operating point status is all       simulation time is     0.     
    node    =voltage      node    =voltage      node    =voltage

 +0:1       =   2.5000  0:2       =  -2.5000  0:3       =   0.     
 +0:4       =   0.      0:5       =   1.6868  0:6       =   1.6868 
 +1:3       =   2.0291  1:4       =   2.0291  1:5       =   1.2155 
 +1:7       =  -1.0582  1:8       =  -1.8928  1:9       =  -1.8928 
 +1:10      =  -1.5585  1:12      =   1.5655  1:13      = 927.8835m
 +1:16      =   2.1487  1:17      =   2.1351  1:18      =  -1.9999 


 **** voltage sources

 subckt                                              
 element  0:vvip     0:vdd      0:vss      0:vvin    
  volts      0.         2.5000     2.5000     0.     
  current    0.      -488.9476u -488.9476u    0.     
  power      0.         1.2224m    1.2224m    0.     

     total voltage source power dissipation=    2.4447m       watts



 **** current sources

 subckt   x1        
 element  1:ibias   
  volts      3.7155 
  current   10.0000u
  power    -37.1553u


     total current source power dissipation= -37.1553u       watts

 **** resistors

 subckt   x1         x1        
 element  1:r0       1:r1      
  r value   35.0000k   50.0000k
  v drop   350.0000m  500.3341m
  current   10.0000u   10.0067u
  power      3.5000u    5.0067u



 **** mosfets


 subckt   x1         x1         x1         x1         x1         x1        
 element  1:m1       1:m2       1:m3       1:m4       1:m5       1:m6      
 model    1:p08      1:p08      1:p08      1:p08      1:p08      1:p08     
 region     Saturati   Saturati   Saturati   Saturati   Saturati   Saturati
  id      -151.7831u -151.7831u -303.5662u  -82.6874u  -82.6874u  -82.6874u
  ibs        0.         0.         0.         0.         0.         0.     
  ibd       38.4566f   38.4566f   21.4340f    6.4200f    6.4200f    4.6671f
  vgs     -927.8835m -927.8835m -934.4671m -813.2108m -813.2108m -813.5770m
  vds       -2.8207    -2.8207    -1.5721  -470.8901m -470.8901m -342.3208m
  vbs        0.         0.         0.         0.         0.         0.     
  vth     -697.1376m -697.1376m -697.1376m -697.1376m -697.1376m -697.1376m
  vdsat   -230.7459m -230.7459m -237.3295m -116.0732m -116.0732m -116.4394m
  vod     -230.7459m -230.7459m -237.3295m -116.0732m -116.0732m -116.4394m
  beta       5.7015m    5.7015m   10.7790m   12.2745m   12.2745m   12.1974m
  gam eff  570.0000m  570.0000m  570.0000m  570.0000m  570.0000m  570.0000m
  gm         1.3156m    1.3156m    2.5582m    1.4247m    1.4247m    1.4203m
  gds        6.6511u    6.6511u   14.0722u    4.0393u    4.0393u    4.0648u
  gmb      420.0310u  420.0310u  816.7582u  454.8823u  454.8823u  453.4515u
  cdtot     74.2708f   74.2708f  141.2196f  161.7138f  161.7138f  160.8090f
  cgtot      1.6509p    1.6509p    3.2903p    4.0286p    4.0286p    4.0272p
  cstot      1.5321p    1.5321p    3.0642p    3.6771p    3.6771p    3.6771p
  cbtot     44.5306f   44.5306f   84.8088f  189.8186f  189.8186f  189.3146f
  cgs        1.5321p    1.5321p    3.0642p    3.6771p    3.6771p    3.6771p
  cgd       74.2708f   74.2708f  141.2196f  161.7138f  161.7138f  160.8090f



 subckt   x1         x1         x1         x1         x1         x1        
 element  1:m7       1:m8       1:m9       1:m10      1:m11      1:m12     
 model    1:p08      1:n08      1:n08      1:n08      1:n08      1:p08     
 region     Saturati   Saturati   Saturati   Saturati   Saturati   Saturati
  id       -82.6874u   82.6874u   82.6874u  234.4704u  234.4704u  -10.0000u
  ibs        0.         0.         0.         0.         0.         0.     
  ibd        4.6671f  -48.8034f  -48.8034f   -8.2786f   -8.2786f    4.7901f
  vgs     -813.5770m  834.6307m  834.6307m  941.5095m  941.5095m -934.4671m
  vds     -342.3208m    3.5796     3.5796   607.2129m  607.2129m -351.3401m
  vbs        0.         0.         0.         0.         0.         0.     
  vth     -697.1376m  697.4274m  697.4274m  697.4274m  697.4274m -697.1376m
  vdsat   -116.4394m  137.2034m  137.2034m  244.0822m  244.0822m -237.3295m
  vod     -116.4394m  137.2034m  137.2034m  244.0822m  244.0822m -237.3295m
  beta      12.1974m    8.7850m    8.7850m    7.8713m    7.8713m  355.0802u
  gam eff  570.0000m  400.0000m  400.0000m  400.0000m  400.0000m  570.0000m
  gm         1.4203m    1.2053m    1.2053m    1.9212m    1.9212m   84.2710u
  gds        4.0648u    2.8932u    2.8932u    9.1564u    9.1564u  491.3681n
  gmb      453.4515u  288.9215u  288.9215u  460.5297u  460.5297u   26.9054u
  cdtot    160.8090f   74.6794f   74.6794f   63.8187f   63.8187f    6.2885f
  cgtot      4.0272p    2.0334p    2.0334p    1.9953p    1.9953p  203.2680f
  cstot      3.6771p    1.8886p    1.8886p    1.8886p    1.8886p  189.0394f
  cbtot    189.3146f   70.1903f   70.1903f   42.9072f   42.9072f    7.9401f
  cgs        3.6771p    1.8886p    1.8886p    1.8886p    1.8886p  189.0394f
  cgd      160.8090f   74.6794f   74.6794f   63.8187f   63.8187f    6.2885f



 subckt   x1         x1         x1         x1         x1        
 element  1:m13      1:m14      1:m15      1:m16      1:m17     
 model    1:n08      1:n08      1:p08      1:p08      1:p08     
 region     Saturati   Saturati   Saturati   Saturati   Saturati
  id        10.0067u   10.0067u  -10.0000u  -10.0067u  -10.0067u
  ibs        0.         0.         0.         0.         0.     
  ibd       -6.8176f   -6.0187f    7.9503f    4.9755f   43.5358f
  vgs      941.5095m  941.7904m -933.1270m -934.4671m -919.5263m
  vds      500.0532m  441.4563m -583.1270m -364.9408m   -3.1932 
  vbs        0.         0.         0.         0.         0.     
  vth      697.4274m  697.4274m -697.1376m -697.1376m -697.1376m
  vdsat    244.0822m  244.3631m -235.9894m -237.3295m -222.3887m
  vod      244.0822m  244.3631m -235.9894m -237.3295m -222.3887m
  beta     335.9294u  335.1575u  359.1244u  355.3175u  404.6639u
  gam eff  400.0000m  400.0000m  570.0000m  570.0000m  570.0000m
  gm        81.9944u   81.9001u   84.7495u   84.3273u   89.9927u
  gds      392.4181n  393.3219n  485.8348n  491.3681n  431.4484n
  gmb       19.6544u   19.6318u   27.0582u   26.9234u   28.7322u
  cdtot      2.7183f    2.7091f    6.3733f    6.2935f    7.3279f
  cgtot     88.1537f   88.1427f  203.3798f  203.2730f  204.6255f
  cstot     80.9380f   80.9380f  189.0394f  189.0394f  189.0394f
  cbtot      4.4974f    4.4956f    7.9671f    7.9401f    8.2581f
  cgs       80.9380f   80.9380f  189.0394f  189.0394f  189.0394f
  cgd        2.7183f    2.7091f    6.3733f    6.2935f    7.3279f







 ****     small-signal transfer characteristics

      v(6)/vvip                                =   26.5781k
      input resistance at             vvip     =  1.000e+20
      output resistance at v(6)                =   20.4671x




          ***** job concluded
1****** HSPICE -- K-2015.06-3 win64 (Aug  6 2015) ******                        
 ******  
 .title opa_open_loop

 ****** job statistics summary tnom=  25.000 temp=  27.000 ******

  ******  HSPICE Threads Information  ******

  Command Line Threads Count :     1
  Available CPU Count        :    16
  Actual Threads Count       :     1


  ******  Circuit Statistics  ******
  # nodes       =      19 # elements   =      26
  # resistors   =       2 # capacitors =       2 # inductors   =       0
  # mutual_inds =       0 # vccs       =       0 # vcvs        =       0
  # cccs        =       0 # ccvs       =       0 # volt_srcs   =       4
  # curr_srcs   =       1 # diodes     =       0 # bjts        =       0
  # jfets       =       0 # mosfets    =      17 # U elements  =       0
  # T elements  =       0 # W elements =       0 # B elements  =       0
  # S elements  =       0 # P elements =       0 # va device   =       0
  # vector_srcs =       0 # N elements =       0


  ******  Runtime Statistics (seconds)  ******

  analysis           time    # points   tot. iter  conv.iter
  op point           0.00           1           6
  dc sweep           0.01        1001        2025
  readin             0.01
  errchk             0.00
  setup              0.00
  output             0.00


           peak memory used         50.73 megabytes
           total cpu time            0.03 seconds
           total elapsed time        0.08 seconds
           job started at     23:07:00 01/05/2023
           job ended   at     23:07:00 01/05/2023


  lic: Release hspice token(s) 
 lic: total license checkout elapse time:        0.05(s)
