****** HSPICE -- K-2015.06-3 win64 (Aug  6 2015) ******
 Input File: test.sp
 lic:
 lic: FLEXlm: v11.2.1
 lic: USER:   DELL                 HOSTNAME: SZX-l2h4
 lic: HOSTID: "2c8db1dbb46e"       PID:      17552
 lic: Using FLEXlm license file:
 lic: 27010@SZX-l2h4
 lic: Checkout 1 hspice
 lic: License/Maintenance for hspice will expire on 30-dec-2030/2029.2029
 lic: 1(in_use)/99(total) FLOATING license(s) on SERVER 27010@SZX-l2h4
 lic:
 init: begin read circuit files,  cpu clock=  1.00E-01
       option search = C:\synopsys\Hspice_K-2015.06-3\parts\behave\
       option search = C:\synopsys\Hspice_K-2015.06-3\parts\behave\
       option search = C:\synopsys\Hspice_K-2015.06-3\parts\AD\
       option search = C:\synopsys\Hspice_K-2015.06-3\parts\XILINX\
       option search = C:\synopsys\Hspice_K-2015.06-3\parts\TLINE\
       option search = C:\synopsys\Hspice_K-2015.06-3\parts\TI\
       option search = C:\synopsys\Hspice_K-2015.06-3\parts\SIGNET\
       option search = C:\synopsys\Hspice_K-2015.06-3\parts\PCI\
       option search = C:\synopsys\Hspice_K-2015.06-3\parts\LIN_TECH\
       option search = C:\synopsys\Hspice_K-2015.06-3\parts\PET\
       option search = C:\synopsys\Hspice_K-2015.06-3\parts\DI0\
       option search = C:\synopsys\Hspice_K-2015.06-3\parts\COMLINE\
       option search = C:\synopsys\Hspice_K-2015.06-3\parts\BURR_BRM\
       option search = C:\synopsys\Hspice_K-2015.06-3\parts\BJT\
       option search = C:\synopsys\Hspice_K-2015.06-3\parts\behave\
       option search = C:\synopsys\Hspice_K-2015.06-3\parts\AD\
       option runlvl
       option post
       option accurate
       option probe
 init: end read circuit files,  cpu clock=  1.10E-01 peak memory=        47 mb
 init: begin check errors,  cpu clock=  1.10E-01
 init: end check errors,  cpu clock=  1.14E-01 peak memory=        50 mb
 init: begin setup matrix, pivot=     0 cpu clock=  1.14E-01
       establish matrix -- done,  cpu clock=  1.15E-01 peak memory=        50 mb
       re-order matrix -- done,  cpu clock=  1.16E-01 peak memory=        50 mb
 init: end setup matrix,  cpu clock=  1.19E-01 peak memory=        50 mb
 dcop: begin dcop,  cpu clock=  1.20E-01
 dcop: end dcop,  cpu clock=  1.24E-01 peak memory=        50 mb  tot_iter=     103
 output: D:\Desktop\ADC\SHA\switch\test.tr0
 sweep: tran tran0    begin, stop_t=  1.00E+00 #sweeps=**** cpu clock=  1.24E-01
 tran: time= 1.0000E-01 tot_iter=    3939 conv_iter=    1099 cpu clock= 1.50E-01
 tran: time= 2.0000E-01 tot_iter=    7757 conv_iter=    2155 cpu clock= 1.74E-01
 tran: time= 3.0000E-01 tot_iter=   11744 conv_iter=    3228 cpu clock= 1.97E-01
 tran: time= 4.0000E-01 tot_iter=   15754 conv_iter=    4298 cpu clock= 2.16E-01
 tran: time= 5.0000E-01 tot_iter=   19679 conv_iter=    5371 cpu clock= 2.36E-01
 tran: time= 6.0000E-01 tot_iter=   23602 conv_iter=    6444 cpu clock= 2.56E-01
 tran: time= 7.0000E-01 tot_iter=   27528 conv_iter=    7510 cpu clock= 2.76E-01
 tran: time= 8.0000E-01 tot_iter=   31504 conv_iter=    8597 cpu clock= 2.93E-01
 tran: time= 9.0000E-01 tot_iter=   35418 conv_iter=    9676 cpu clock= 3.13E-01
 tran: time= 1.0000E+00 tot_iter=   39345 conv_iter=   10778 cpu clock= 3.33E-01
 sweep: tran tran0    end,  cpu clock=  3.33E-01 peak memory=        51 mb
>info:         ***** hspice job concluded
 lic: Release hspice token(s)
