 ****** HSPICE -- K-2015.06-3 win64 (Aug  6 2015) ******                        
  Copyright (c) 1986 - 2023 by Synopsys, Inc. All Rights Reserved.              
  This software and the associated documentation are proprietary
  to Synopsys, Inc. This software may only be used in accordance
  with the terms and conditions of a written license agreement with
  Synopsys, Inc. All other use, reproduction, or distribution of
  this software is strictly prohibited.
  Input File: test.sp                                                           
  Command line options: C:\synopsys\Hspice_K-2015.06-3\WIN64\hspice.exe -i test.sp -o D:\Desktop\ADC\SHA\switch\test.lis
  lic:  
  lic: FLEXlm: v11.2.1 
  lic: USER:   DELL                 HOSTNAME: SZX-l2h4 
  lic: HOSTID: "2c8db1dbb46e"       PID:      17552 
  lic: Using FLEXlm license file: 
  lic: 27010@SZX-l2h4 
  lic: Checkout 1 hspice 
  lic: License/Maintenance for hspice will expire on 30-dec-2030/2029.2029 
  lic: 1(in_use)/99(total) FLOATING license(s) on SERVER 27010@SZX-l2h4 
  lic:   
 Init: read install configuration file: C:\synopsys\Hspice_K-2015.06-3\meta.cfg

 **warning**  runlvl smaller than 5, reset to 5 when accurate turned on

 **warning**  runlvl smaller than 5, reset to 5 when accurate turned on
1****** HSPICE -- K-2015.06-3 win64 (Aug  6 2015) ******                        
 ******  
 .title switch_test

 ****** circuit name directory
 circuit number to circuit name directory
   number circuitname                     definition         multiplier
        0 main circuit
        1 x1.                             switch             1.00 
1****** HSPICE -- K-2015.06-3 win64 (Aug  6 2015) ******                        
 ******  
 .title switch_test

 ****** mos   model parameters tnom=  25.000 temp=  25.000 ******
 ***************************************************************************
 *** common model parameters  model name:   1:n08      model type:nmos   ***
 ***************************************************************************
     names  values   units     names  values   units     names  values   units
     -----  ------   -----     -----  ------   -----     -----  ------   -----

   1*** geometry parameters ***
       ld=  16.00n meters      lmlt=   1.00                wd=   0.    meters 
     wmlt=   1.00                xl=   0.    meters        xw=   0.    meters 
     lref=   0.    meters      wref=   0.    meters      lref=   0.    meters 
     wref=   0.    meters     xlref=   0.    meters     xwref=   0.    meters 
     lmin=   0.    meters      wmin=   0.    meters      lmax=   0.    meters 
     wmax=   0.    meters 

   2*** threshold voltage parameters ***
      vto= 700.00m volts        nss=   0.    1/cm**2      tpg=   1.00         
      phi= 700.00m volts      gamma= 400.00m v**0.5      bulk=  gnd           
    ngate=   0.    cm**3       nsub= 2.9e+16 1/cm**3   delvto=   0.    volts  

   3*** gate overlap capacitance parameters ***
     cgbo= 700.00p f/meter     cgdo= 220.00p f/meter     cgso= 220.00p f/meter
     meto=   0.    meters 

   4*** gate capacitance parameters ***
    capop=   2.00               cf1=   0.    volts        cf2= 100.00m volts  
      cf3=   1.00  volts        cf4=  50.00               cf5= 666.67m        
      cf6= 500.00               xqc= 500.00m              tox=  14.00n meters 
      cox=   2.47m f/m**2 

   5*** diffusion parasitic parameters ***
      acm=   0.                  is=  10.00f amps          js=   0.    a/m**2 
      jsw=   0.    amp/m        nds=   1.00               cbd=   0.    farad  
      cbs=   0.    farad         cj= 770.00u f/m**2      cjsw= 380.00p f/m    
   cjgate= 380.00p f/m           mj= 500.00m             mjsw= 380.00m        
       pb= 800.00m volts        php= 800.00m volts         tt=   0.    secs   
     hdif=   0.    meters      ldif=   0.    meters        rd=   0.    ohms   
       rs=   0.    ohms         rsh=   0.    ohms/sq       fc=   0.           
    alpha=   0.                 vcr=   0.    volts      iirat=   0.           
      rdc=   0.    ohms         rsc=   0.    ohms           n=   1.00         
     vnds=  -1.00  volts  

   6*** temperature effect parameters ***
     tlev=   0.               tlevc=   0.                  eg=   1.11  ev     
     gap1= 702.00u ev/deg      gap2=   1.11k deg          xti=   0.           
      bex=  -1.50               tcv=   0.    v/deg k      trd=   0.    /deg   
      trs=   0.    /deg         cta=   0.    /deg         ctp=   0.    /deg   

   7*** noise parameters ***
       kf=   0.                  af=   1.00              nlev=   2.00         
   gdsnoi=   1.00         

   ***  level  1  model parameters  ***

   lambda=  40.00m /v            kp= 110.00u a/v**2 
 ***************************************************************************
 *** common model parameters  model name:   1:p08      model type:pmos   ***
 ***************************************************************************
     names  values   units     names  values   units     names  values   units
     -----  ------   -----     -----  ------   -----     -----  ------   -----

   1*** geometry parameters ***
       ld=  14.00n meters      lmlt=   1.00                wd=   0.    meters 
     wmlt=   1.00                xl=   0.    meters        xw=   0.    meters 
     lref=   0.    meters      wref=   0.    meters      lref=   0.    meters 
     wref=   0.    meters     xlref=   0.    meters     xwref=   0.    meters 
     lmin=   0.    meters      wmin=   0.    meters      lmax=   0.    meters 
     wmax=   0.    meters 

   2*** threshold voltage parameters ***
      vto=-700.00m volts        nss=   0.    1/cm**2      tpg=   1.00         
      phi= 800.00m volts      gamma= 570.00m v**0.5      bulk=  gnd           
    ngate=   0.    cm**3       nsub= 5.9e+16 1/cm**3   delvto=   0.    volts  

   3*** gate overlap capacitance parameters ***
     cgbo= 700.00p f/meter     cgdo= 220.00p f/meter     cgso= 220.00p f/meter
     meto=   0.    meters 

   4*** gate capacitance parameters ***
    capop=   2.00               cf1=   0.    volts        cf2= 100.00m volts  
      cf3=   1.00  volts        cf4=  50.00               cf5= 666.67m        
      cf6= 500.00               xqc= 500.00m              tox=  14.00n meters 
      cox=   2.47m f/m**2 

   5*** diffusion parasitic parameters ***
      acm=   0.                  is=  10.00f amps          js=   0.    a/m**2 
      jsw=   0.    amp/m        nds=   1.00               cbd=   0.    farad  
      cbs=   0.    farad         cj= 560.00u f/m**2      cjsw= 350.00p f/m    
   cjgate= 350.00p f/m           mj= 500.00m             mjsw= 350.00m        
       pb= 800.00m volts        php= 800.00m volts         tt=   0.    secs   
     hdif=   0.    meters      ldif=   0.    meters        rd=   0.    ohms   
       rs=   0.    ohms         rsh=   0.    ohms/sq       fc=   0.           
    alpha=   0.                 vcr=   0.    volts      iirat=   0.           
      rdc=   0.    ohms         rsc=   0.    ohms           n=   1.00         
     vnds=  -1.00  volts  

   6*** temperature effect parameters ***
     tlev=   0.               tlevc=   0.                  eg=   1.11  ev     
     gap1= 702.00u ev/deg      gap2=   1.11k deg          xti=   0.           
      bex=  -1.50               tcv=   0.    v/deg k      trd=   0.    /deg   
      trs=   0.    /deg         cta=   0.    /deg         ctp=   0.    /deg   

   7*** noise parameters ***
       kf=   0.                  af=   1.00              nlev=   2.00         
   gdsnoi=   1.00         

   ***  level  1  model parameters  ***

   lambda=  50.00m /v            kp=  50.00u a/v**2 
  **info** (test.sp:10) DC voltage reset to initial transient source value in source            0:vclk. new dc=  0.0000D+00
  
             
 Warning:'1 connection nodes' occurs 1 times
 Summary of 1 connection from the following nodes:
 -----------------------
 |Node      |Subckt    |
 |----------+----------|
 |x1.8      |switch    |
 -----------------------
              
      
 **info** set option symb=1 internally to help for convergence.
 *****************************************************************
 ******  option summary
 ******
 runlvl  = 5         bypass  = 2         
  Opening plot unit= 79
 file=D:\Desktop\ADC\SHA\switch\test.pa0

 **info** dc convergence successful at GMINDC ramping method 
1****** HSPICE -- K-2015.06-3 win64 (Aug  6 2015) ******                        
 ******  
 .title switch_test

 ****** operating point information tnom=  25.000 temp=  75.000 ******
 ****** operating point status is voltage   simulation time is     0.     
    node    =voltage      node    =voltage      node    =voltage

 +0:2       =   0.      0:3       =   0.      0:7       =   0.     
 +0:10      =   3.0000  0:12      =   0.      1:1       =   2.9337 
 +1:4       =   1.0267  1:5       =   2.9337  1:6       = 427.3280m
 +1:8       =   0.      1:9       =   2.0277 


          ***** job concluded
1****** HSPICE -- K-2015.06-3 win64 (Aug  6 2015) ******                        
 ******  
 .title switch_test

 ****** job statistics summary tnom=  25.000 temp=  75.000 ******

  ******  HSPICE Threads Information  ******

  Command Line Threads Count :     1
  Available CPU Count        :    16
  Actual Threads Count       :     1


  ****** Statistics of Ignored Elements ******
  Capacitors      :       1

  ******  Circuit Statistics  ******
  # nodes       =      12 # elements   =      15
  # resistors   =       0 # capacitors =       1 # inductors   =       0
  # mutual_inds =       0 # vccs       =       0 # vcvs        =       0
  # cccs        =       0 # ccvs       =       0 # volt_srcs   =       4
  # curr_srcs   =       0 # diodes     =       0 # bjts        =       0
  # jfets       =       0 # mosfets    =      10 # U elements  =       0
  # T elements  =       0 # W elements =       0 # B elements  =       0
  # S elements  =       0 # P elements =       0 # va device   =       0
  # vector_srcs =       0 # N elements =       0


  ******  Runtime Statistics (seconds)  ******

  analysis           time    # points   tot. iter  conv.iter
  op point           0.01           1         103
  transient          0.21     1000001       39347       10779 rev=      1172
  readin             0.02
  errchk             0.00
  setup              0.00
  output             0.00


           peak memory used         51.60 megabytes
           total cpu time            0.24 seconds
           total elapsed time        0.33 seconds
           job started at     11:55:57 01/07/2023
           job ended   at     11:55:57 01/07/2023


  lic: Release hspice token(s) 
 lic: total license checkout elapse time:        0.09(s)
