****** HSPICE -- K-2015.06-3 win64 (Aug  6 2015) ******
 Input File: CS_amp_DC.sp
 lic:
 lic: FLEXlm: v11.2.1
 lic: USER:   DELL                 HOSTNAME: SZX-l2h4
 lic: HOSTID: "2c8db1dbb46e"       PID:      11596
 lic: Using FLEXlm license file:
 lic: 27010@SZX-l2h4
 lic: Checkout 1 hspice
 lic: License/Maintenance for hspice will expire on 30-dec-2030/2029.2029
 lic: 1(in_use)/99(total) FLOATING license(s) on SERVER 27010@SZX-l2h4
 lic:
 lic: Release hspice token(s)
