 ****** HSPICE -- K-2015.06-3 win64 (Aug  6 2015) ******                        
  Copyright (c) 1986 - 2022 by Synopsys, Inc. All Rights Reserved.              
  This software and the associated documentation are proprietary
  to Synopsys, Inc. This software may only be used in accordance
  with the terms and conditions of a written license agreement with
  Synopsys, Inc. All other use, reproduction, or distribution of
  this software is strictly prohibited.
  Input File: CS_amp_DC.sp                                                      
  Command line options: C:\synopsys\Hspice_K-2015.06-3\WIN64\hspice.exe -i CS_amp_DC.sp -o C:\Users\DELL\Desktop\HSP\chap6\chap6.4.2\CS_amp_DC.lis
  lic:  
  lic: FLEXlm: v11.2.1 
  lic: USER:   DELL                 HOSTNAME: SZX-l2h4 
  lic: HOSTID: "2c8db1dbb46e"       PID:      5132 
  lic: Using FLEXlm license file: 
  lic: 27010@SZX-l2h4 
  lic: Checkout 1 hspice 
  lic: License/Maintenance for hspice will expire on 30-dec-2030/2029.2029 
  lic: 1(in_use)/99(total) FLOATING license(s) on SERVER 27010@SZX-l2h4 
  lic:   
 Init: read install configuration file: C:\synopsys\Hspice_K-2015.06-3\meta.cfg

 **warning**  runlvl smaller than 5, reset to 5 when accurate turned on
  **warning** (..\models\ms018.mdl:20) Model n18 device geometries will not be checked against the limits set by lmin, lmax, wmin and wmax. To enable this check, add a period(.) to the model name(i.e. enable model selector).

 **warning**  runlvl smaller than 5, reset to 5 when accurate turned on
1****** HSPICE -- K-2015.06-3 win64 (Aug  6 2015) ******                        
 ******  
 cs_amp_dc

 ****** circuit name directory
 circuit number to circuit name directory
   number circuitname                     definition         multiplier
        0 main circuit
        1 x1.                             cs_amp             1.00 
1****** HSPICE -- K-2015.06-3 win64 (Aug  6 2015) ******                        
 ******  
 cs_amp_dc

 ****** mos   model parameters tnom=  25.000 temp=  25.000 ******
 ***************************************************************************
 ***        model parameters  model name:   0:n18      model type:nmos   ***
 ***************************************************************************

   *** general parameters ***
    deriv=   0.           

   ***  level 49  model parameters  ***

       hspver=    2006.03               level=         49         
      version=       3.24            paramchk=          0         
       apwarn=          1                lite=          0         
       vgslim=          0             binUnit=          2         
       capMod=          3               xpart=          1         
       mobMod=          1              nqsMod=          0         
       stiMod=          0                 elm=          5         
     sfvtflag=          0                 tox=  3.87e-009 meter   
           xj=   1.6e-007 meter       binflag=          0         
         lmin=   1.5e-007 meter          lmax=     1e-005 meter   
         wmin=   1.9e-007 meter          wmax=     0.0001 meter   
         lref=          0 meter          wref=          0 meter   
         lint=1.57571e-008 meter          wint=-1.44505e-009 meter   
        lmult=          1               wmult=          1         
           ll=2.63528e-016                 lln=     1.1206         
           lw=-2.26256e-016                 lwn=       0.92         
          lwl=-2.05767e-022                  wl=-2.36646e-016         
          wln=       1.06                  ww=-3.64097e-014         
          wwn=   0.876847                 wwl=    -4e-021         
          dwg= -5.96e-009 m/V             dwb=   4.5e-009 m/V^1/2 
           xl=   1.8e-008                  xw=          0         
           a0=       0.83                 ags=       0.32 V^-1    
           b0=     6e-008 meter            b1=          0 meter   
         keta=     -0.003 V^-1           voff=     -0.103 V       
        ngate=          0 cm^-3           vbx=          0 V       
          vbm=         -3 V                xt=  1.55e-007 meter   
         vth0=       0.39 V               nch=3.8694e+017 cm^-3   
         nsub=     6e+016 cm^-3           nlx=7.5451e-008 meter   
       gamma1=          0 V^-1/2       gamma2=          0 V^-1/2  
           k1=   0.680104 V^1/2            k2= -0.0499778         
           k3=         10                 k3b=         -3 V^-1    
           w0=5.58201e-007 meter          dvt0=        1.3         
         dvt1=   0.577163                dvt2=  -0.171755 V^-1    
        dvt0w=          0 meter^-1      dvt1w=          0 meter^-1
        dvt2w=          0 V^-1           dsub=        0.4         
         eta0=      0.028                etab=     -0.027 V^-1    
           u0=      0.034 m^2/V/sec         ua= -1.03e-009 m/V     
           ub=2.36667e-018 (m/V)^2          uc=   1.2e-010 V^-1    
         vsat=      82500 m/sec            a1=          0 v^-1    
           a2=       0.99               delta=       0.01 V       
         rdsw=    55.5497 ohm-um         prwg=        0.4 V^-1    
         prwb=      -0.24 V^-1/2           wr=          1         
         pclm=        1.2             pdiblc1=      0.025         
      pdiblc2=     0.0038             pdiblcb=          0 V^-1    
       pscbe1=  3.45e+008 V/m          pscbe2=     1e-006 V/m     
        drout=       0.56                pvag=          0         
      nfactor=       1.25                cdsc=          0 f/m^2   
        cdscb=          0 f/V/m^2       cdscd=     0.0001 f/V/m^2 
          cit=          0 f/m^2        alpha0=1.7754e-008 m/V     
        beta0=    11.1684 V               dlc=   8.5e-009 meter   
          dwc=   4.5e-008 meter           clc=     1e-007 meter   
          cle=        0.6                cgso=   3.7e-010 f/m     
         cgdo=   3.7e-010 f/m            cgbo=8.03054e-010 f/m     
         cgsl=          0 f/m            cgdl=          0 f/m     
       ckappa=        0.6                  cf=          0 f/m     
         acde=       0.64 m/V            moin=         24 V^1/2   
         toxm=  3.87e-009 m            dtoxcv=          0 m       
          vfb (not used)                alpha1=     0.1764 1/V     
         ijth=        0.1 A              noff=     1.2025         
       voffcv=          0                 tcj=   0.000842 1/K     
        tcjsw=   0.000669 1/K          tcjswg=   0.000669 1/K     
          tpb=    0.00147 V/K           tpbsw=   0.000868 V/K     
       tpbswg=   0.000868 V/K             llc=2.63528e-016         
          lwc=-2.26256e-016                lwlc=-2.05767e-022         
          wlc=-2.36646e-016                 wwc=-3.64097e-014         
         wwlc=    -4e-021                tnom=     298.15 K       
          kt1=  -0.257287 V              kt1l=    -1e-009         
          kt2=      -0.04                 ute=      -1.55         
          ua1=  1.76e-009 m/V             ub1=  -2.4e-018 (m/V)^2 
          uc1=    -1e-010 m/V^2            at=      37000 m/s     
          prt=        -55         
          using Berkeley noise model       noiMod=          2         
         noia=8.2282e+019                noib=      13327         
         noic=-2.4937e-014                  em=1.7767e+007         
           ef=      0.818                  af=          1         
           kf=          0              gdsnoi=-1.23457e-029         
          using Berkeley diodes          using ACM 
          acm=        12                 hdif=    2e-007 meter    
         ldif=    7e-008 meter             js= 3.52e-007 amp/m^2  
          jsw=    3e-013 amp/m            xti=      3.25          
           nj=    1.0392                   cj=  0.000968 f/m^2    
           mj=     0.346                   pb=       0.7 V        
         cjsw= 7.95e-011 f/m             mjsw=     0.538          
          php (not used)                  pbsw=         1 V        
       cjgate (not used)                 cjswg= 4.18e-010 f/m      
        mjswg=     0.538                pbswg=         1 V        
        lketa=  -1.7e-009               lvoff=  -3.3e-009         
          lu0=2.30577e-011                 lua=7.73498e-019         
     lnfactor=   4.5e-008                lua1=     6e-018         
         luc1=   1.7e-017             lalpha1= 7.625e-009         
        wvth0=-2.97095e-008                 wk1=-2.48968e-008         
          wu0=-3.10097e-009                wua1=  -1.1e-016         
        pvth0=     5e-016                 pk1=   1.3e-015         
          pua=    -1e-024                 puc=   1.5e-024         
        pvsat=  -8.3e-010               ppclm=     3e-015         
     ppdiblc2=   2.7e-016                pua1=    -5e-025         
         puc1=    -3e-024                 pat=  -7.5e-010         
 ***************************************************************************
 ***        model parameters  model name:   0:p18      model type:pmos   ***
 ***************************************************************************

   *** general parameters ***
    deriv=   0.           

   ***  level 49  model parameters  ***

       hspver=    2006.03               level=         49         
      version=       3.24            paramchk=          0         
       apwarn=          1                lite=          0         
       vgslim=          0             binUnit=          2         
       capMod=          3               xpart=          1         
       mobMod=          1              nqsMod=          0         
       stiMod=          0                 elm=          5         
     sfvtflag=          0                 tox=  3.74e-009 meter   
           xj=   1.7e-007 meter       binflag=          0         
         lmin=   1.5e-007 meter          lmax=     1e-005 meter   
         wmin=   1.9e-007 meter          wmax=     0.0001 meter   
         lref=          0 meter          wref=          0 meter   
         lint=     1e-008 meter          wint=     8e-009 meter   
        lmult=          1               wmult=          1         
           ll=   3.4e-015                 lln=          1         
           lw= -3.36e-016                 lwn=          1         
          lwl=          0                  wl=3.59042e-015         
          wln=      1.045                  ww=  -1.9e-015         
          wwn=          1                 wwl=-1.1205e-021         
          dwg=-1.7362e-008 m/V             dwb=     2e-008 m/V^1/2 
           xl=  -5.7e-009                  xw=          0         
           a0=          1                 ags=        0.2 V^-1    
           b0=   6.3e-008 meter            b1=          0 meter   
         keta=       0.02 V^-1           voff=     -0.095 V       
        ngate= 3.168e+020 cm^-3           vbx=          0 V       
          vbm=         -3 V                xt=  1.55e-007 meter   
         vth0=     -0.402 V               nch=   5.5e+017 cm^-3   
         nsub=     6e+016 cm^-3           nlx=     9e-008 meter   
       gamma1=          0 V^-1/2       gamma2=          0 V^-1/2  
           k1=   0.587239 V^1/2            k2= 0.00709069         
           k3=        2.6                 k3b=     2.4862 V^-1    
           w0=          0 meter          dvt0=   0.719493         
         dvt1=   0.246744                dvt2=  0.0780897 V^-1    
        dvt0w=          0 meter^-1      dvt1w=     800000 meter^-1
        dvt2w=          0 V^-1           dsub=       0.56         
         eta0=       0.04                etab=     -0.025 V^-1    
           u0=   0.008661 m^2/V/sec         ua=  2.85e-010 m/V     
           ub=     1e-018 (m/V)^2          uc= -4.77e-011 V^-1    
         vsat=     100000 m/sec            a1=          0 v^-1    
           a2=       0.99               delta=       0.01 V       
         rdsw=        455 ohm-um         prwg=          0 V^-1    
         prwb=       -0.4 V^-1/2           wr=          1         
         pclm=        0.7             pdiblc1=          0         
      pdiblc2=      0.007             pdiblcb=          0 V^-1    
       pscbe1=     4e+008 V/m          pscbe2=     1e-007 V/m     
        drout=       0.56                pvag=          0         
      nfactor=        0.9                cdsc=          0 f/m^2   
        cdscb=          0 f/V/m^2       cdscd=          0 f/V/m^2 
          cit=          0 f/m^2        alpha0=     7e-008 m/V     
        beta0=    22.8424 V               dlc=  -1.5e-009 meter   
          dwc=     8e-009 meter           clc=     1e-007 meter   
          cle=        0.6                cgso=   4.2e-010 f/m     
         cgdo=   4.2e-010 f/m            cgbo=1.47728e-010 f/m     
         cgsl=          0 f/m            cgdl=          0 f/m     
       ckappa=        0.6                  cf=          0 f/m     
         acde=   0.850508 m/V            moin=    14.9534 V^1/2   
         toxm=  3.74e-009 m            dtoxcv=          0 m       
          vfb (not used)                alpha1=    7.04917 1/V     
         ijth=        0.1 A              noff=    1.43182         
       voffcv=          0                 tcj=   0.000876 1/K     
        tcjsw=   0.000745 1/K          tcjswg=   0.000745 1/K     
          tpb=    0.00153 V/K           tpbsw=    0.00117 V/K     
       tpbswg=    0.00117 V/K             llc=   3.4e-015         
          lwc= -3.36e-016                lwlc=          0         
          wlc=3.59042e-015                 wwc=  -1.9e-015         
         wwlc=-1.1205e-021                tnom=     298.15 K       
          kt1=  -0.257701 V              kt1l=    -8e-009         
          kt2= -0.0309799                 ute=   -1.27036         
          ua1=5.38663e-010 m/V             ub1=-2.071e-018 (m/V)^2 
          uc1=2.06097e-011 m/V^2            at=      10000 m/s     
          prt=         90         
          using Berkeley noise model       noiMod=          2         
         noia=3.3617e+018                noib=     195360         
         noic=5.2658e-012                  em=6.2548e+007         
           ef=     1.1307                  af=          1         
           kf=          0              gdsnoi=-1.23457e-029         
          using Berkeley diodes          using ACM 
          acm=        12                 hdif=    2e-007 meter    
         ldif=    7e-008 meter             js= 1.66e-007 amp/m^2  
          jsw=  1.2e-013 amp/m            xti=       4.5          
           nj=    1.0384                   cj=   0.00107 f/m^2    
           mj=     0.415                   pb=     0.817 V        
         cjsw= 9.89e-011 f/m             mjsw=     0.489          
          php (not used)                  pbsw=         1 V        
       cjgate (not used)                 cjswg= 5.07e-010 f/m      
        mjswg=     0.489                pbswg=         1 V        
        lketa=  -8.5e-009               lvoff=  -1.7e-009         
          lk1=3.55321e-009                 lu0=    -2e-011         
          lua=   5.5e-018            lnfactor=     1e-007         
       lbeta0=  -7.5e-008                lkt2=    -3e-009         
        wvoff=    -2e-009               wvth0=1.26754e-008         
          wu0=1.38154e-010                 wuc=3.1668e-017         
         wua1=   1.1e-016               pketa=     5e-016         
        pvoff=    -1e-016               pvth0= -1.25e-015         
          pua=    -2e-024                 puc=  -2.5e-024         
     pnfactor=    -5e-015                pkt2=-6.53317e-016         
         pua1= -2.37e-024                 pat=    -1e-009         
 

  
      
 **info** set option symb=1 internally to help for convergence.
 *****************************************************************
 ******  option summary
 ******
 runlvl  = 5         bypass  = 2         
  Opening plot unit= 79
 file=C:\Users\DELL\Desktop\HSP\chap6\chap6.4.2\CS_amp_DC.pa0





 ****     small-signal transfer characteristics

        vvin       input resistance at vvin      output resistance at v(vout)     v(vout)/vvin     

       0.                1.000e+20                       1.4849k                  -10.8577u
      20.0000m           1.000e+20                       1.4849k                  -19.3327u
      40.0000m           1.000e+20                       1.4849k                  -34.3987u
      60.0000m           1.000e+20                       1.4849k                  -61.1486u
      80.0000m           1.000e+20                       1.4849k                 -108.5663u
     100.0000m           1.000e+20                       1.4850k                 -192.4397u
     120.0000m           1.000e+20                       1.4850k                 -340.3777u
     140.0000m           1.000e+20                       1.4851k                 -600.3508u
     160.0000m           1.000e+20                       1.4852k                   -1.0550m
     180.0000m           1.000e+20                       1.4854k                   -1.8453m
     200.0000m           1.000e+20                       1.4858k                   -3.2081m
     220.0000m           1.000e+20                       1.4865k                   -5.5353m
     240.0000m           1.000e+20                       1.4877k                   -9.4620m
     260.0000m           1.000e+20                       1.4897k                  -15.9945m
     280.0000m           1.000e+20                       1.4932k                  -26.6883m
     300.0000m           1.000e+20                       1.4989k                  -43.8943m
     320.0000m           1.000e+20                       1.5083k                  -71.1057m
     340.0000m           1.000e+20                       1.5238k                 -113.4798m
     360.0000m           1.000e+20                       1.5491k                 -178.6830m
     380.0000m           1.000e+20                       1.5906k                 -278.3671m
     400.0000m           1.000e+20                       1.6599k                 -431.0764m
     420.0000m           1.000e+20                       1.7809k                 -669.3846m
     440.0000m           1.000e+20                       2.0116k                   -1.0635 
     460.0000m           1.000e+20                       2.5543k                   -1.8378 
     480.0000m           1.000e+20                       5.2349k                   -4.9252 
     500.0000m           1.000e+20                      38.7324k                  -40.8863 
     520.0000m           1.000e+20                      28.2219k                  -29.9606 
     540.0000m           1.000e+20                       4.4514k                   -4.1926 
     560.0000m           1.000e+20                       1.3507k                   -1.0214 
     580.0000m           1.000e+20                     829.8834                  -529.4451m
     600.0000m           1.000e+20                     607.8659                  -334.7544m
     620.0000m           1.000e+20                     481.9222                  -232.0897m
     640.0000m           1.000e+20                     400.1694                  -170.1269m
     660.0000m           1.000e+20                     342.7347                  -129.6411m
     680.0000m           1.000e+20                     300.2009                  -101.7386m
     700.0000m           1.000e+20                     267.4770                   -81.7390m
     720.0000m           1.000e+20                     241.5544                   -66.9568m
     740.0000m           1.000e+20                     220.5366                   -55.7527m
     760.0000m           1.000e+20                     203.1682                   -47.0785m
     780.0000m           1.000e+20                     188.5856                   -40.2389m
     800.0000m           1.000e+20                     176.1759                   -34.7588m
     820.0000m           1.000e+20                     165.4925                   -30.3052m
     840.0000m           1.000e+20                     156.2027                   -26.6397m
     860.0000m           1.000e+20                     148.0538                   -23.5884m
     880.0000m           1.000e+20                     140.8506                   -21.0222m
     900.0000m           1.000e+20                     134.4399                   -18.8440m
     920.0000m           1.000e+20                     128.7000                   -16.9794m
     940.0000m           1.000e+20                     123.5330                   -15.3711m
     960.0000m           1.000e+20                     118.8591                   -13.9741m
     980.0000m           1.000e+20                     114.6127                   -12.7529m
       1.0000            1.000e+20                     110.7397                   -11.6791m
       1.0200            1.000e+20                     107.1944                   -10.7299m
       1.0400            1.000e+20                     103.9386                    -9.8866m
       1.0600            1.000e+20                     100.9397                    -9.1340m
       1.0800            1.000e+20                      98.1699                    -8.4595m
       1.1000            1.000e+20                      95.6054                    -7.8526m
       1.1200            1.000e+20                      93.2253                    -7.3045m
       1.1400            1.000e+20                      91.0118                    -6.8078m
       1.1600            1.000e+20                      88.9492                    -6.3564m
       1.1800            1.000e+20                      87.0236                    -5.9447m
       1.2000            1.000e+20                      85.2230                    -5.5684m
       1.2200            1.000e+20                      83.5366                    -5.2234m
       1.2400            1.000e+20                      81.9548                    -4.9063m
       1.2600            1.000e+20                      80.4691                    -4.6142m
       1.2800            1.000e+20                      79.0720                    -4.3446m
       1.3000            1.000e+20                      77.7566                    -4.0952m
       1.3200            1.000e+20                      76.5168                    -3.8640m
       1.3400            1.000e+20                      75.3471                    -3.6492m
       1.3600            1.000e+20                      74.2424                    -3.4495m
       1.3800            1.000e+20                      73.1982                    -3.2633m
       1.4000            1.000e+20                      72.2104                    -3.0895m
       1.4200            1.000e+20                      71.2753                    -2.9270m
       1.4400            1.000e+20                      70.3894                    -2.7749m
       1.4600            1.000e+20                      69.5495                    -2.6323m
       1.4800            1.000e+20                      68.7529                    -2.4983m
       1.5000            1.000e+20                      67.9968                    -2.3724m
       1.5200            1.000e+20                      67.2788                    -2.2539m
       1.5400            1.000e+20                      66.5967                    -2.1422m
       1.5600            1.000e+20                      65.9484                    -2.0368m
       1.5800            1.000e+20                      65.3320                    -1.9373m
       1.6000            1.000e+20                      64.7458                    -1.8431m
       1.6200            1.000e+20                      64.1881                    -1.7540m
       1.6400            1.000e+20                      63.6573                    -1.6696m
       1.6600            1.000e+20                      63.1521                    -1.5896m
       1.6800            1.000e+20                      62.6711                    -1.5136m
       1.7000            1.000e+20                      62.2132                    -1.4414m
       1.7200            1.000e+20                      61.7771                    -1.3727m
       1.7400            1.000e+20                      61.3618                    -1.3073m
       1.7600            1.000e+20                      60.9663                    -1.2451m
       1.7800            1.000e+20                      60.5896                    -1.1858m
       1.8000            1.000e+20                      60.2309                    -1.1292m
  
 **info** dc convergence successful at Newton-Raphson method 
1****** HSPICE -- K-2015.06-3 win64 (Aug  6 2015) ******                        
 ******  
 cs_amp_dc

 ****** operating point information tnom=  25.000 temp=  27.000 ******
 ****** operating point status is all       simulation time is     0.     
    node    =voltage      node    =voltage      node    =voltage

 +0:gnda    =   0.      0:vbias   =   1.2000  0:vdda    =   1.8000 
 +0:vin     = 500.0000m 0:vout    =   1.1553 


 **** voltage sources

 subckt                                              
 element  0:vvin     0:vgnda    0:vvbias   0:vvdda   
  volts    500.0000m    0.         1.2000     1.8000 
  current    0.        63.4185u    0.       -63.4185u
  power      0.         0.         0.       114.1533u

     total voltage source power dissipation=  114.1533u       watts




 **** mosfets


 subckt   x1         x1        
 element  1:mm1      1:mm2     
 model    0:n18      0:p18     
 region     Saturati   Saturati
  id        63.4178u  -63.4185u
  ibs     -4.563e-20  9.223e-20
  ibd     -733.1166p   26.0073a
  vgs      500.0000m -600.0000m
  vds        1.1553  -644.7331m
  vbs        0.         0.     
  vth      472.5030m -425.2597m
  vdsat     79.7140m -174.1581m
  vod       27.4970m -174.7403m
  beta      22.3093m    4.2527m
  gam eff  772.6355m  577.4186m
  gm         1.0583m  635.4975u
  gds       23.6345u    2.2378u
  gmb      258.5964u  203.9426u
  cdtot      9.7757f   74.2698f
  cgtot     15.4840f  411.4351f
  cstot     19.5483f  483.1730f
  cbtot     18.7000f  240.2132f
  cgs        9.6150f  352.8751f
  cgd        3.6066f   25.3152f







 ****     small-signal transfer characteristics

      v(vout)/vvin                             =  -40.8863 
      input resistance at             vvin     =  1.000e+20
      output resistance at v(vout)             =   38.7324k



 ***************************************************
   ******   pole/zero analysis  
  
  
    input =  0:vvin          output = v(vout)
  
       poles (rad/sec)                 poles ( hertz)
 real            imag            real            imag            
 -23.8166x       0.              -3.79052x       0.              
  
       zeros (rad/sec)                 zeros ( hertz)
 real            imag            real            imag            
 285.686g        0.              45.4683g        0.              
  
  ***** constant factor = 3.83381m

          ***** job concluded
1****** HSPICE -- K-2015.06-3 win64 (Aug  6 2015) ******                        
 ******  
 cs_amp_dc

 ****** job statistics summary tnom=  25.000 temp=  27.000 ******

  ******  HSPICE Threads Information  ******

  Command Line Threads Count :     1
  Available CPU Count        :    16
  Actual Threads Count       :     1


  ******  Circuit Statistics  ******
  # nodes       =      10 # elements   =       7
  # resistors   =       0 # capacitors =       1 # inductors   =       0
  # mutual_inds =       0 # vccs       =       0 # vcvs        =       0
  # cccs        =       0 # ccvs       =       0 # volt_srcs   =       4
  # curr_srcs   =       0 # diodes     =       0 # bjts        =       0
  # jfets       =       0 # mosfets    =       2 # U elements  =       0
  # T elements  =       0 # W elements =       0 # B elements  =       0
  # S elements  =       0 # P elements =       0 # va device   =       0
  # vector_srcs =       0 # N elements =       0


  ******  Runtime Statistics (seconds)  ******

  analysis           time    # points   tot. iter  conv.iter
  op point           0.00           1           9
  dc sweep           0.00          91         219
  readin             0.02
  errchk             0.01
  setup              0.00
  output             0.00


           peak memory used         50.71 megabytes
           total cpu time            0.03 seconds
           total elapsed time        0.12 seconds
           job started at     01:19:41 11/15/2022
           job ended   at     01:19:41 11/15/2022


  lic: Release hspice token(s) 
 lic: total license checkout elapse time:        0.08(s)
